REMARK  Name = imageData/pubchem/ligands/5770444_decoys.pdb
REMARK  5 active torsions:
REMARK  status: ('A' for Active; 'I' for Inactive)
REMARK    1  A    between atoms: C_5  and  C_8
REMARK    2  A    between atoms: C_11  and  C_13
REMARK    3  A    between atoms: C_13  and  S_14
REMARK    4  A    between atoms: S_14  and  C_15
REMARK    5  A    between atoms: C_24  and  O_26
REMARK                            x       y       z     vdW  Elec       q    Type
REMARK                         _______ _______ _______ _____ _____    ______ ____
ROOT
ATOM      1  C   UNL     1       0.597   1.886   1.740  0.00  0.00    +0.000 C 
ATOM      2  N   UNL     1       0.710   1.384   0.473  0.00  0.00    +0.000 NA
ATOM      3  C   UNL     1       1.839   0.709   0.158  0.00  0.00    +0.000 A 
ATOM      4  C   UNL     1       2.831   0.539   1.076  0.00  0.00    +0.000 A 
ATOM      5  C   UNL     1       3.819  -0.174   0.465  0.00  0.00    +0.000 A 
ATOM      6  C   UNL     1       3.355  -0.398  -0.819  0.00  0.00    +0.000 A 
ATOM      7  N   UNL     1       2.127   0.140  -1.035  0.00  0.00    +0.000 NA
ATOM      8  C   UNL     1       4.119  -1.109  -1.740  0.00  0.00    +0.000 A 
ATOM      9  C   UNL     1       5.374  -1.590  -1.322  0.00  0.00    +0.000 A 
ATOM     10  C   UNL     1       5.846  -1.359  -0.009  0.00  0.00    +0.000 A 
ATOM     11  C   UNL     1       5.053  -0.635   0.909  0.00  0.00    +0.000 A 
ATOM     12  N   UNL     1       2.726   1.035   2.327  0.00  0.00    +0.000 NA
ATOM     13  N   UNL     1       1.611   1.704   2.649  0.00  0.00    +0.000 NA
ENDROOT
BRANCH  10  14
ATOM     14  O   UNL     1       7.100  -1.861   0.350  0.00  0.00    +0.000 OA
ATOM     15  C   UNL     1       7.658  -1.679   1.644  0.00  0.00    +0.000 C 
ENDBRANCH  10  14
BRANCH   1  16
ATOM     16  S   UNL     1      -0.879   2.777   2.216  0.00  0.00    +0.000 S 
BRANCH  16  17
ATOM     17  C   UNL     1      -1.711   1.284   2.841  0.00  0.00    +0.000 C 
BRANCH  17  21
ATOM     18  C   UNL     1      -3.356  -0.152   0.074  0.00  0.00    +0.000 A 
ATOM     19  N   UNL     1      -2.438  -1.115   0.294  0.00  0.00    +0.000 NA
ATOM     20  N   UNL     1      -1.724  -0.717   1.336  0.00  0.00    +0.000 NA
ATOM     21  C   UNL     1      -2.236   0.470   1.710  0.00  0.00    +0.000 A 
ATOM     22  O   UNL     1      -3.236   0.825   0.941  0.00  0.00    +0.000 OA
BRANCH  18  27
ATOM     23  C   UNL     1      -7.287  -0.292  -4.131  0.00  0.00    +0.000 C 
ATOM     24  C   UNL     1      -6.272  -0.257  -3.046  0.00  0.00    +0.000 A 
ATOM     25  C   UNL     1      -5.365  -1.311  -2.904  0.00  0.00    +0.000 A 
ATOM     26  C   UNL     1      -4.410  -1.278  -1.883  0.00  0.00    +0.000 A 
ATOM     27  C   UNL     1      -4.358  -0.191  -1.000  0.00  0.00    +0.000 A 
ATOM     28  C   UNL     1      -5.270   0.862  -1.147  0.00  0.00    +0.000 A 
ATOM     29  C   UNL     1      -6.225   0.829  -2.168  0.00  0.00    +0.000 A 
ENDBRANCH  18  27
ENDBRANCH  17  21
ENDBRANCH  16  17
ENDBRANCH   1  16
TORSDOF 5
