REMARK  Name = imageData/pubchem/ligands/644390_decoys.pdb
REMARK  7 active torsions:
REMARK  status: ('A' for Active; 'I' for Inactive)
REMARK    1  A    between atoms: C_2  and  O_3
REMARK    2  A    between atoms: O_3  and  C_4
REMARK    3  A    between atoms: C_9  and  N_12
REMARK    4  A    between atoms: N_12  and  C_13
REMARK    5  A    between atoms: C_13  and  C_14
REMARK    6  A    between atoms: C_14  and  N_15
REMARK    7  A    between atoms: C_16  and  C_18
REMARK                            x       y       z     vdW  Elec       q    Type
REMARK                         _______ _______ _______ _____ _____    ______ ____
ROOT
ATOM      1  N   UNL     1       0.715   1.766   0.119  0.00  0.00    +0.000 NA
ENDROOT
BRANCH   1   7
ATOM      2  C   UNL     1       4.514  -2.188  -0.956  0.00  0.00    +0.000 C 
ATOM      3  O   UNL     1       4.112  -3.379  -1.075  0.00  0.00    +0.000 OA
ATOM      4  N   UNL     1       3.637  -1.184  -0.432  0.00  0.00    +0.000 N 
ATOM      5  C   UNL     1       2.286  -1.543  -0.001  0.00  0.00    +0.000 C 
ATOM      6  C   UNL     1       1.264  -0.531  -0.527  0.00  0.00    +0.000 C 
ATOM      7  C   UNL     1       1.749   0.929  -0.465  0.00  0.00    +0.000 C 
ATOM      8  C   UNL     1       3.047   1.093   0.322  0.00  0.00    +0.000 C 
ATOM      9  C   UNL     1       4.126   0.187  -0.265  0.00  0.00    +0.000 C 
BRANCH   2  10
ATOM     10  O   UNL     1       5.817  -1.846  -1.331  0.00  0.00    +0.000 OA
BRANCH  10  12
ATOM     11  C   UNL     1       6.385  -3.052  -3.341  0.00  0.00    +0.000 C 
ATOM     12  C   UNL     1       6.726  -2.789  -1.887  0.00  0.00    +0.000 C 
ENDBRANCH  10  12
ENDBRANCH   2  10
ENDBRANCH   1   7
BRANCH   1  13
ATOM     13  C   UNL     1      -0.063   2.318  -0.978  0.00  0.00    +0.000 C 
BRANCH  13  14
ATOM     14  C   UNL     1      -1.341   2.935  -0.443  0.00  0.00    +0.000 C 
BRANCH  14  15
ATOM     15  N   UNL     1      -2.208   1.890   0.077  0.00  0.00    +0.000 NA
ATOM     16  C   UNL     1      -3.472   2.172   0.680  0.00  0.00    +0.000 C 
ATOM     17  O   UNL     1      -3.880   3.365   0.733  0.00  0.00    +0.000 OA
BRANCH  16  18
ATOM     18  C   UNL     1      -4.329   1.083   1.211  0.00  0.00    +0.000 A 
ATOM     19  C   UNL     1      -5.690   1.364   1.415  0.00  0.00    +0.000 A 
ATOM     20  C   UNL     1      -6.563   0.389   1.900  0.00  0.00    +0.000 A 
ATOM     21  C   UNL     1      -6.086  -0.887   2.193  0.00  0.00    +0.000 A 
ATOM     22  C   UNL     1      -4.736  -1.185   2.008  0.00  0.00    +0.000 A 
ATOM     23  C   UNL     1      -3.850  -0.216   1.522  0.00  0.00    +0.000 A 
ATOM     24 CL   UNL     1      -2.162  -0.692   1.388  0.00  0.00    +0.000 Cl
ENDBRANCH  16  18
ENDBRANCH  14  15
ENDBRANCH  13  14
ENDBRANCH   1  13
TORSDOF 7
