REMARK  Name = imageData/pubchem/ligands/644380_decoys.pdb
REMARK  6 active torsions:
REMARK  status: ('A' for Active; 'I' for Inactive)
REMARK    1  A    between atoms: C_10  and  C_11
REMARK    2  A    between atoms: C_11  and  C_21
REMARK    3  A    between atoms: C_11  and  O_23
REMARK    4  A    between atoms: N_12  and  O_23
REMARK    5  A    between atoms: C_14  and  O_22
REMARK    6  A    between atoms: C_21  and  O_22
REMARK                            x       y       z     vdW  Elec       q    Type
REMARK                         _______ _______ _______ _____ _____    ______ ____
ROOT
ATOM      1  C   UNL     1      -1.955   1.958   1.464  0.00  0.00    +0.000 C 
ATOM      2  C   UNL     1      -2.503   2.166   0.065  0.00  0.00    +0.000 C 
ATOM      3  C   UNL     1      -3.808   1.408  -0.118  0.00  0.00    +0.000 C 
ATOM      4  C   UNL     1      -3.554  -0.052  -0.458  0.00  0.00    +0.000 C 
ATOM      5  O   UNL     1      -3.143  -0.747   0.681  0.00  0.00    +0.000 OA
ATOM      6  C   UNL     1      -2.564  -1.919   0.189  0.00  0.00    +0.000 C 
ATOM      7  C   UNL     1      -1.280  -2.243   0.943  0.00  0.00    +0.000 C 
ATOM      8  C   UNL     1      -0.233  -1.158   0.740  0.00  0.00    +0.000 C 
ATOM      9  N   UNL     1       0.262  -1.185  -0.634  0.00  0.00    +0.000 NA
ATOM     10  C   UNL     1       0.199   0.162  -1.220  0.00  0.00    +0.000 C 
ATOM     11  O   UNL     1      -1.550  -2.387   2.304  0.00  0.00    +0.000 OA
ATOM     12  C   UNL     2      -0.729   0.009  -0.066  0.00  0.00    +0.000 C 
ATOM     13  O   UNL     2      -1.330   1.093  -0.289  0.00  0.00    +0.000 OA
ATOM     14  O   UNL     2      -1.457  -1.168   0.053  0.00  0.00    +0.000 OA
ENDROOT
BRANCH  10  15
ATOM     15  C   UNL     1       1.163   1.141  -0.545  0.00  0.00    +0.000 C 
BRANCH  15  16
ATOM     16  C   UNL     2       0.729  -0.009   0.066  0.00  0.00    +0.000 C 
BRANCH  16  17
ATOM     17  O   UNL     2       1.330  -1.093   0.289  0.00  0.00    +0.000 OA
BRANCH  17  19
ATOM     18  C   UNL     1       2.638  -0.789   0.022  0.00  0.00    +0.000 C 
ATOM     19  C   UNL     1       1.633  -1.716  -0.668  0.00  0.00    +0.000 C 
ENDBRANCH  17  19
ENDBRANCH  16  17
ENDBRANCH  15  16
BRANCH  15  20
ATOM     20  O   UNL     2       1.457   1.168  -0.053  0.00  0.00    +0.000 OA
BRANCH  20  21
ATOM     21  N   UNL     1       2.499   0.563  -0.505  0.00  0.00    +0.000 NA
ATOM     22  C   UNL     1       3.652   1.383  -0.747  0.00  0.00    +0.000 C 
ATOM     23  O   UNL     1       3.513   2.586  -1.094  0.00  0.00    +0.000 OA
ATOM     24  C   UNL     1       5.030   0.831  -0.605  0.00  0.00    +0.000 C 
ENDBRANCH  20  21
ENDBRANCH  15  20
ENDBRANCH  10  15
TORSDOF 6
