REMARK  Name = imageData/pubchem/ligands/644391_decoys.pdb
REMARK  10 active torsions:
REMARK  status: ('A' for Active; 'I' for Inactive)
REMARK    1  A    between atoms: C_2  and  O_3
REMARK    2  A    between atoms: O_3  and  C_4
REMARK    3  A    between atoms: C_9  and  N_10
REMARK    4  A    between atoms: N_10  and  C_11
REMARK    5  A    between atoms: C_11  and  C_12
REMARK    6  A    between atoms: C_11  and  C_18
REMARK    7  A    between atoms: N_20  and  C_21
REMARK    8  A    between atoms: C_25  and  C_27
REMARK    9  A    between atoms: C_27  and  N_28
REMARK   10  A    between atoms: C_29  and  C_31
REMARK                            x       y       z     vdW  Elec       q    Type
REMARK                         _______ _______ _______ _____ _____    ______ ____
ROOT
ATOM      1  N   UNL     1      -0.396   0.095  -0.925  0.00  0.00    +0.000 N 
ATOM      2  C   UNL     1       0.619   0.353  -1.913  0.00  0.00    +0.000 C 
ATOM      3  O   UNL     1       0.566  -0.211  -3.038  0.00  0.00    +0.000 OA
ENDROOT
BRANCH   1   9
ATOM      4  C   UNL     1      -0.758   2.079   0.494  0.00  0.00    +0.000 A 
ATOM      5  C   UNL     1      -0.680   2.701   1.751  0.00  0.00    +0.000 A 
ATOM      6  C   UNL     1      -0.193   2.000   2.857  0.00  0.00    +0.000 A 
ATOM      7  C   UNL     1       0.221   0.674   2.717  0.00  0.00    +0.000 A 
ATOM      8  C   UNL     1       0.148   0.048   1.471  0.00  0.00    +0.000 A 
ATOM      9  C   UNL     1      -0.343   0.743   0.358  0.00  0.00    +0.000 A 
BRANCH   4  10
ATOM     10  O   UNL     1      -1.244   2.765  -0.627  0.00  0.00    +0.000 OA
BRANCH  10  12
ATOM     11  C   UNL     1      -3.196   4.055  -0.049  0.00  0.00    +0.000 C 
ATOM     12  C   UNL     1      -1.770   4.086  -0.569  0.00  0.00    +0.000 C 
ENDBRANCH  10  12
ENDBRANCH   4  10
ENDBRANCH   1   9
BRANCH   1  13
ATOM     13  C   UNL     1      -1.482  -0.837  -1.249  0.00  0.00    +0.000 C 
BRANCH  13  14
ATOM     14  C   UNL     1      -2.845  -0.216  -1.121  0.00  0.00    +0.000 A 
ATOM     15  C   UNL     1      -3.445  -0.008   0.129  0.00  0.00    +0.000 A 
ATOM     16  C   UNL     1      -4.694   0.612   0.195  0.00  0.00    +0.000 A 
ATOM     17  N   UNL     1      -5.316   1.016  -0.945  0.00  0.00    +0.000 NA
ATOM     18  C   UNL     1      -4.749   0.833  -2.168  0.00  0.00    +0.000 A 
ATOM     19  C   UNL     1      -3.500   0.217  -2.276  0.00  0.00    +0.000 A 
ENDBRANCH  13  14
BRANCH  13  20
ATOM     20  C   UNL     1      -1.323  -2.163  -0.567  0.00  0.00    +0.000 C 
ATOM     21  O   UNL     1      -1.635  -2.303   0.647  0.00  0.00    +0.000 OA
ATOM     22  N   UNL     1      -0.772  -3.258  -1.307  0.00  0.00    +0.000 NA
BRANCH  22  23
ATOM     23  C   UNL     1      -0.510  -4.587  -0.761  0.00  0.00    +0.000 C 
ATOM     24  C   UNL     1      -1.797  -5.218  -0.261  0.00  0.00    +0.000 C 
ATOM     25  C   UNL     1       0.065  -5.461  -1.855  0.00  0.00    +0.000 C 
ATOM     26  C   UNL     1       0.496  -4.503   0.373  0.00  0.00    +0.000 C 
ENDBRANCH  22  23
ENDBRANCH  13  20
ENDBRANCH   1  13
BRANCH   2  27
ATOM     27  C   UNL     1       1.766   1.266  -1.624  0.00  0.00    +0.000 C 
BRANCH  27  28
ATOM     28  N   UNL     1       2.670   0.628  -0.682  0.00  0.00    +0.000 NA
ATOM     29  C   UNL     1       3.755   1.331  -0.076  0.00  0.00    +0.000 C 
ATOM     30  O   UNL     1       3.981   2.535  -0.376  0.00  0.00    +0.000 OA
BRANCH  29  31
ATOM     31  C   UNL     1       4.609   0.653   0.904  0.00  0.00    +0.000 A 
ATOM     32  C   UNL     1       4.472  -0.656   1.314  0.00  0.00    +0.000 A 
ATOM     33  C   UNL     1       5.490  -0.847   2.233  0.00  0.00    +0.000 A 
ATOM     34  C   UNL     1       6.173   0.354   2.321  0.00  0.00    +0.000 A 
ATOM     35  O   UNL     1       5.616   1.224   1.513  0.00  0.00    +0.000 OA
ENDBRANCH  29  31
ENDBRANCH  27  28
ENDBRANCH   2  27
TORSDOF 10
