REMARK  Name = imageData/pubchem/ligands/644392_decoys.pdb
REMARK  4 active torsions:
REMARK  status: ('A' for Active; 'I' for Inactive)
REMARK    1  A    between atoms: C_6  and  C_18
REMARK    2  A    between atoms: N_9  and  C_10
REMARK    3  A    between atoms: C_12  and  O_16
REMARK    4  A    between atoms: N_20  and  C_21
REMARK                            x       y       z     vdW  Elec       q    Type
REMARK                         _______ _______ _______ _____ _____    ______ ____
ROOT
ATOM      1  C   UNL     1       1.970  -2.203  -3.671  0.00  0.00    +0.000 C 
ATOM      2  N   UNL     1       0.922  -1.481  -2.960  0.00  0.00    +0.000 N 
ATOM      3  C   UNL     1      -0.456  -1.855  -3.171  0.00  0.00    +0.000 C 
ATOM      4  O   UNL     1      -0.742  -2.735  -4.025  0.00  0.00    +0.000 OA
ATOM      5  C   UNL     1      -1.587  -1.200  -2.426  0.00  0.00    +0.000 C 
ATOM      6  C   UNL     1      -1.130  -0.524  -1.139  0.00  0.00    +0.000 C 
ATOM      7  S   UNL     1       0.076   0.764  -1.551  0.00  0.00    +0.000 S 
ATOM      8  C   UNL     1       1.284  -0.500  -1.974  0.00  0.00    +0.000 C 
ATOM      9  N   UNL     1       2.466  -0.556  -1.421  0.00  0.00    +0.000 NA
ENDROOT
BRANCH   9  10
ATOM     10  C   UNL     1       3.025   0.259  -0.377  0.00  0.00    +0.000 A 
ATOM     11  C   UNL     1       4.417   0.297  -0.240  0.00  0.00    +0.000 A 
ATOM     12  C   UNL     1       5.019   1.037   0.792  0.00  0.00    +0.000 A 
ATOM     13  C   UNL     1       4.212   1.729   1.700  0.00  0.00    +0.000 A 
ATOM     14  C   UNL     1       2.821   1.681   1.585  0.00  0.00    +0.000 A 
ATOM     15  C   UNL     1       2.231   0.944   0.555  0.00  0.00    +0.000 A 
BRANCH  12  16
ATOM     16  O   UNL     1       6.407   1.097   0.937  0.00  0.00    +0.000 OA
ATOM     17  C   UNL     1       7.301   0.424   0.061  0.00  0.00    +0.000 C 
ENDBRANCH  12  16
ENDBRANCH   9  10
BRANCH   6  18
ATOM     18  C   UNL     1      -2.291   0.067  -0.413  0.00  0.00    +0.000 C 
ATOM     19  O   UNL     1      -3.034   0.910  -0.987  0.00  0.00    +0.000 OA
ATOM     20  N   UNL     1      -2.531  -0.329   0.943  0.00  0.00    +0.000 NA
BRANCH  20  21
ATOM     21  C   UNL     1      -3.583   0.136   1.803  0.00  0.00    +0.000 A 
ATOM     22  C   UNL     1      -4.533   1.073   1.367  0.00  0.00    +0.000 A 
ATOM     23  C   UNL     1      -5.546   1.507   2.225  0.00  0.00    +0.000 A 
ATOM     24  C   UNL     1      -5.619   1.008   3.527  0.00  0.00    +0.000 A 
ATOM     25  C   UNL     1      -4.678   0.075   3.971  0.00  0.00    +0.000 A 
ATOM     26  C   UNL     1      -3.663  -0.360   3.113  0.00  0.00    +0.000 A 
ATOM     27  F   UNL     1      -2.758  -1.266   3.559  0.00  0.00    +0.000 F 
ENDBRANCH  20  21
ENDBRANCH   6  18
TORSDOF 4
