644380_decoys
     RDKit          3D

 24 23  0  0  0  0  0  0  0  0999 V2000
   -1.9553    1.9576    1.4636 C   0  0  0  0  0  0  0  0  0  0  0  0
   -2.5030    2.1661    0.0646 C   0  0  0  0  0  0  0  0  0  0  0  0
   -3.8083    1.4081   -0.1185 C   0  0  0  0  0  0  0  0  0  0  0  0
   -3.5543   -0.0525   -0.4575 C   0  0  0  0  0  0  0  0  0  0  0  0
   -3.1431   -0.7472    0.6808 O   0  0  0  0  0  0  0  0  0  0  0  0
   -2.5641   -1.9194    0.1885 C   0  0  0  0  0  0  0  0  0  0  0  0
   -1.2796   -2.2434    0.9429 C   0  0  0  0  0  0  0  0  0  0  0  0
   -0.2332   -1.1580    0.7403 C   0  0  0  0  0  0  0  0  0  0  0  0
    0.2624   -1.1846   -0.6337 N   0  0  0  0  0  0  0  0  0  0  0  0
    0.1994    0.1616   -1.2202 C   0  0  0  0  0  0  0  0  0  0  0  0
    1.1628    1.1415   -0.5449 C   0  0  0  0  0  0  0  0  0  0  0  0
    2.4995    0.5627   -0.5050 N   0  0  0  0  0  0  0  0  0  0  0  0
    2.6382   -0.7894    0.0221 C   0  0  0  0  0  0  0  0  0  0  0  0
    1.6328   -1.7156   -0.6683 C   0  0  0  0  0  0  0  0  0  0  0  0
    3.6521    1.3828   -0.7467 C   0  0  0  0  0  0  0  0  0  0  0  0
    3.5130    2.5861   -1.0936 O   0  0  0  0  0  0  0  0  0  0  0  0
    5.0305    0.8310   -0.6050 C   0  0  0  0  0  0  0  0  0  0  0  0
   -1.5495   -2.3874    2.3039 O   0  0  0  0  0  0  0  0  0  0  0  0
   -0.7294    0.0093   -0.0664 C   0  0  0  0  0  0  0  0  0  0  0  0
   -1.3304    1.0927   -0.2895 O   0  0  0  0  0  0  0  0  0  0  0  0
    0.7294   -0.0093    0.0664 C   0  0  0  0  0  0  0  0  0  0  0  0
    1.3304   -1.0927    0.2895 O   0  0  0  0  0  0  0  0  0  0  0  0
    1.4574    1.1680   -0.0531 O   0  0  0  0  0  0  0  0  0  0  0  0
   -1.4574   -1.1680    0.0531 O   0  0  0  0  0  0  0  0  0  0  0  0
  1  2  1  0
  2  3  1  0
  3  4  1  0
  4  5  1  0
  5  6  1  0
  6  7  1  0
  7  8  1  0
  8  9  1  0
  9 10  1  0
 10 11  1  0
 11 12  1  0
 12 13  1  0
 13 14  1  0
 12 15  1  0
 15 16  2  0
 15 17  1  0
  7 18  1  0
 19 20  2  0
 19 21  1  0
 21 22  2  0
 21 23  1  0
 19 24  1  0
 14  9  1  0
M  END
$$$$
644390_decoys
     RDKit          3D

 24 25  0  0  0  0  0  0  0  0999 V2000
    6.3847   -3.0517   -3.3413 C   0  0  0  0  0  0  0  0  0  0  0  0
    6.7262   -2.7887   -1.8865 C   0  0  0  0  0  0  0  0  0  0  0  0
    5.8175   -1.8457   -1.3315 O   0  0  0  0  0  0  0  0  0  0  0  0
    4.5141   -2.1884   -0.9556 C   0  0  0  0  0  0  0  0  0  0  0  0
    4.1116   -3.3790   -1.0751 O   0  0  0  0  0  0  0  0  0  0  0  0
    3.6366   -1.1839   -0.4325 N   0  0  0  0  0  0  0  0  0  0  0  0
    2.2856   -1.5433   -0.0006 C   0  0  0  0  0  0  0  0  0  0  0  0
    1.2645   -0.5315   -0.5274 C   0  0  0  0  0  0  0  0  0  0  0  0
    1.7489    0.9286   -0.4650 C   0  0  0  0  0  0  0  0  0  0  0  0
    3.0470    1.0935    0.3219 C   0  0  0  0  0  0  0  0  0  0  0  0
    4.1263    0.1870   -0.2650 C   0  0  0  0  0  0  0  0  0  0  0  0
    0.7154    1.7659    0.1188 N   0  0  0  0  0  0  0  0  0  0  0  0
   -0.0634    2.3177   -0.9784 C   0  0  0  0  0  0  0  0  0  0  0  0
   -1.3409    2.9350   -0.4430 C   0  0  0  0  0  0  0  0  0  0  0  0
   -2.2084    1.8901    0.0767 N   0  0  0  0  0  0  0  0  0  0  0  0
   -3.4718    2.1722    0.6800 C   0  0  0  0  0  0  0  0  0  0  0  0
   -3.8799    3.3654    0.7325 O   0  0  0  0  0  0  0  0  0  0  0  0
   -4.3287    1.0834    1.2109 C   0  0  0  0  0  0  0  0  0  0  0  0
   -5.6899    1.3643    1.4152 C   0  0  0  0  0  0  0  0  0  0  0  0
   -6.5627    0.3891    1.9000 C   0  0  0  0  0  0  0  0  0  0  0  0
   -6.0857   -0.8871    2.1934 C   0  0  0  0  0  0  0  0  0  0  0  0
   -4.7355   -1.1846    2.0080 C   0  0  0  0  0  0  0  0  0  0  0  0
   -3.8500   -0.2163    1.5220 C   0  0  0  0  0  0  0  0  0  0  0  0
   -2.1617   -0.6921    1.3884 Cl  0  0  0  0  0  0  0  0  0  0  0  0
  1  2  1  0
  2  3  1  0
  3  4  1  0
  4  5  2  0
  4  6  1  0
  6  7  1  0
  7  8  1  0
  8  9  1  0
  9 10  1  0
 10 11  1  0
  9 12  1  0
 12 13  1  0
 13 14  1  0
 14 15  1  0
 15 16  1  0
 16 17  2  0
 16 18  1  0
 18 19  2  0
 19 20  1  0
 20 21  2  0
 21 22  1  0
 22 23  2  0
 23 24  1  0
 11  6  1  0
 23 18  1  0
M  END
$$$$
644391_decoys
     RDKit          3D

 35 37  0  0  0  0  0  0  0  0999 V2000
   -3.1955    4.0546   -0.0492 C   0  0  0  0  0  0  0  0  0  0  0  0
   -1.7705    4.0856   -0.5692 C   0  0  0  0  0  0  0  0  0  0  0  0
   -1.2435    2.7649   -0.6275 O   0  0  0  0  0  0  0  0  0  0  0  0
   -0.7582    2.0795    0.4940 C   0  0  0  0  0  0  0  0  0  0  0  0
   -0.6805    2.7007    1.7512 C   0  0  0  0  0  0  0  0  0  0  0  0
   -0.1934    2.0002    2.8575 C   0  0  0  0  0  0  0  0  0  0  0  0
    0.2208    0.6741    2.7174 C   0  0  0  0  0  0  0  0  0  0  0  0
    0.1476    0.0481    1.4712 C   0  0  0  0  0  0  0  0  0  0  0  0
   -0.3425    0.7432    0.3576 C   0  0  0  0  0  0  0  0  0  0  0  0
   -0.3959    0.0947   -0.9247 N   0  0  0  0  0  0  0  0  0  0  0  0
   -1.4816   -0.8371   -1.2487 C   0  0  0  0  0  0  0  0  0  0  0  0
   -2.8445   -0.2159   -1.1206 C   0  0  0  0  0  0  0  0  0  0  0  0
   -3.4450   -0.0081    0.1285 C   0  0  0  0  0  0  0  0  0  0  0  0
   -4.6939    0.6121    0.1951 C   0  0  0  0  0  0  0  0  0  0  0  0
   -5.3159    1.0157   -0.9450 N   0  0  0  0  0  0  0  0  0  0  0  0
   -4.7486    0.8332   -2.1676 C   0  0  0  0  0  0  0  0  0  0  0  0
   -3.5000    0.2167   -2.2758 C   0  0  0  0  0  0  0  0  0  0  0  0
   -1.3225   -2.1630   -0.5670 C   0  0  0  0  0  0  0  0  0  0  0  0
   -1.6345   -2.3029    0.6467 O   0  0  0  0  0  0  0  0  0  0  0  0
   -0.7719   -3.2583   -1.3070 N   0  0  0  0  0  0  0  0  0  0  0  0
   -0.5099   -4.5871   -0.7611 C   0  0  0  0  0  0  0  0  0  0  0  0
   -1.7969   -5.2176   -0.2609 C   0  0  0  0  0  0  0  0  0  0  0  0
    0.0654   -5.4612   -1.8549 C   0  0  0  0  0  0  0  0  0  0  0  0
    0.4957   -4.5034    0.3731 C   0  0  0  0  0  0  0  0  0  0  0  0
    0.6191    0.3531   -1.9128 C   0  0  0  0  0  0  0  0  0  0  0  0
    0.5660   -0.2111   -3.0382 O   0  0  0  0  0  0  0  0  0  0  0  0
    1.7655    1.2663   -1.6241 C   0  0  0  0  0  0  0  0  0  0  0  0
    2.6696    0.6282   -0.6820 N   0  0  0  0  0  0  0  0  0  0  0  0
    3.7549    1.3313   -0.0763 C   0  0  0  0  0  0  0  0  0  0  0  0
    3.9805    2.5350   -0.3756 O   0  0  0  0  0  0  0  0  0  0  0  0
    4.6086    0.6533    0.9036 C   0  0  0  0  0  0  0  0  0  0  0  0
    4.4721   -0.6563    1.3138 C   0  0  0  0  0  0  0  0  0  0  0  0
    5.4898   -0.8466    2.2326 C   0  0  0  0  0  0  0  0  0  0  0  0
    6.1734    0.3540    2.3208 C   0  0  0  0  0  0  0  0  0  0  0  0
    5.6163    1.2241    1.5128 O   0  0  0  0  0  0  0  0  0  0  0  0
  1  2  1  0
  2  3  1  0
  3  4  1  0
  4  5  2  0
  5  6  1  0
  6  7  2  0
  7  8  1  0
  8  9  2  0
  9 10  1  0
 10 11  1  0
 11 12  1  0
 12 13  2  0
 13 14  1  0
 14 15  2  0
 15 16  1  0
 16 17  2  0
 11 18  1  0
 18 19  2  0
 18 20  1  0
 20 21  1  0
 21 22  1  0
 21 23  1  0
 21 24  1  0
 10 25  1  0
 25 26  2  0
 25 27  1  0
 27 28  1  0
 28 29  1  0
 29 30  2  0
 29 31  1  0
 31 32  2  0
 32 33  1  0
 33 34  2  0
 34 35  1  0
  9  4  1  0
 17 12  1  0
 35 31  1  0
M  END
$$$$
644392_decoys
     RDKit          3D

 27 29  0  0  0  0  0  0  0  0999 V2000
    1.9701   -2.2026   -3.6713 C   0  0  0  0  0  0  0  0  0  0  0  0
    0.9217   -1.4811   -2.9596 N   0  0  0  0  0  0  0  0  0  0  0  0
   -0.4557   -1.8546   -3.1708 C   0  0  0  0  0  0  0  0  0  0  0  0
   -0.7424   -2.7354   -4.0252 O   0  0  0  0  0  0  0  0  0  0  0  0
   -1.5873   -1.2000   -2.4264 C   0  0  0  0  0  0  0  0  0  0  0  0
   -1.1301   -0.5239   -1.1395 C   0  0  0  0  0  0  0  0  0  0  0  0
    0.0757    0.7640   -1.5506 S   0  0  0  0  0  0  0  0  0  0  0  0
    1.2838   -0.4997   -1.9737 C   0  0  0  0  0  0  0  0  0  0  0  0
    2.4658   -0.5558   -1.4213 N   0  0  0  0  0  0  0  0  0  0  0  0
    3.0251    0.2590   -0.3774 C   0  0  0  0  0  0  0  0  0  0  0  0
    4.4171    0.2975   -0.2399 C   0  0  0  0  0  0  0  0  0  0  0  0
    5.0187    1.0367    0.7919 C   0  0  0  0  0  0  0  0  0  0  0  0
    4.2123    1.7289    1.7000 C   0  0  0  0  0  0  0  0  0  0  0  0
    2.8212    1.6809    1.5848 C   0  0  0  0  0  0  0  0  0  0  0  0
    2.2311    0.9436    0.5555 C   0  0  0  0  0  0  0  0  0  0  0  0
    6.4073    1.0969    0.9374 O   0  0  0  0  0  0  0  0  0  0  0  0
    7.3007    0.4239    0.0608 C   0  0  0  0  0  0  0  0  0  0  0  0
   -2.2914    0.0674   -0.4130 C   0  0  0  0  0  0  0  0  0  0  0  0
   -3.0337    0.9101   -0.9872 O   0  0  0  0  0  0  0  0  0  0  0  0
   -2.5311   -0.3285    0.9433 N   0  0  0  0  0  0  0  0  0  0  0  0
   -3.5829    0.1355    1.8028 C   0  0  0  0  0  0  0  0  0  0  0  0
   -4.5327    1.0727    1.3665 C   0  0  0  0  0  0  0  0  0  0  0  0
   -5.5461    1.5073    2.2249 C   0  0  0  0  0  0  0  0  0  0  0  0
   -5.6186    1.0084    3.5275 C   0  0  0  0  0  0  0  0  0  0  0  0
   -4.6778    0.0755    3.9706 C   0  0  0  0  0  0  0  0  0  0  0  0
   -3.6630   -0.3605    3.1128 C   0  0  0  0  0  0  0  0  0  0  0  0
   -2.7577   -1.2662    3.5589 F   0  0  0  0  0  0  0  0  0  0  0  0
  1  2  1  0
  2  3  1  0
  3  4  2  0
  3  5  1  0
  5  6  1  0
  6  7  1  0
  7  8  1  0
  8  9  2  3
  9 10  1  0
 10 11  2  0
 11 12  1  0
 12 13  2  0
 13 14  1  0
 14 15  2  0
 12 16  1  0
 16 17  1  0
  6 18  1  0
 18 19  2  0
 18 20  1  0
 20 21  1  0
 21 22  2  0
 22 23  1  0
 23 24  2  0
 24 25  1  0
 25 26  2  0
 26 27  1  0
  8  2  1  0
 15 10  1  0
 26 21  1  0
M  END
$$$$
644393_decoys
     RDKit          3D

 31 35  0  0  0  0  0  0  0  0999 V2000
   -8.9814    1.1621   -1.1005 C   0  0  0  0  0  0  0  0  0  0  0  0
   -7.5072    1.1488   -0.9149 C   0  0  0  0  0  0  0  0  0  0  0  0
   -6.7999   -0.0522   -1.0320 C   0  0  0  0  0  0  0  0  0  0  0  0
   -5.4135   -0.0623   -0.8576 C   0  0  0  0  0  0  0  0  0  0  0  0
   -4.6920   -1.2482   -0.9612 C   0  0  0  0  0  0  0  0  0  0  0  0
   -3.3063   -1.2439   -0.7874 C   0  0  0  0  0  0  0  0  0  0  0  0
   -2.6451   -0.0234   -0.5083 C   0  0  0  0  0  0  0  0  0  0  0  0
   -3.3822    1.1194   -0.3954 N   0  0  0  0  0  0  0  0  0  0  0  0
   -4.7300    1.1336   -0.5627 C   0  0  0  0  0  0  0  0  0  0  0  0
   -5.4417    2.3309   -0.4455 C   0  0  0  0  0  0  0  0  0  0  0  0
   -6.8294    2.3376   -0.6217 C   0  0  0  0  0  0  0  0  0  0  0  0
   -1.2205    0.0476   -0.3207 N   0  0  0  0  0  0  0  0  0  0  0  0
   -0.6685    1.0683    0.5701 C   0  0  0  0  0  0  0  0  0  0  0  0
    0.8174    1.3060    0.2771 C   0  0  0  0  0  0  0  0  0  0  0  0
    1.6096    0.0623    0.2512 N   0  0  0  0  0  0  0  0  0  0  0  0
    0.9271   -1.0899   -0.3648 C   0  0  0  0  0  0  0  0  0  0  0  0
   -0.3083   -0.7059   -1.1760 C   0  0  0  0  0  0  0  0  0  0  0  0
    1.9239   -0.3101    1.6233 C   0  0  0  0  0  0  0  0  0  0  0  0
    3.2321    0.2834    2.0312 C   0  0  0  0  0  0  0  0  0  0  0  0
    3.3733    1.4947    2.5991 N   0  0  0  0  0  0  0  0  0  0  0  0
    4.6832    1.6530    2.7477 N   0  0  0  0  0  0  0  0  0  0  0  0
    5.3264    0.5903    2.2845 N   0  0  0  0  0  0  0  0  0  0  0  0
    4.4363   -0.2742    1.8343 N   0  0  0  0  0  0  0  0  0  0  0  0
    4.7500   -1.5479    1.2026 C   0  0  0  0  0  0  0  0  0  0  0  0
    5.1775   -1.3329   -0.2092 C   0  0  0  0  0  0  0  0  0  0  0  0
    4.2403   -1.4132   -1.2446 C   0  0  0  0  0  0  0  0  0  0  0  0
    4.6355   -1.1891   -2.5667 C   0  0  0  0  0  0  0  0  0  0  0  0
    5.9686   -0.8806   -2.8548 C   0  0  0  0  0  0  0  0  0  0  0  0
    6.9059   -0.7948   -1.8206 C   0  0  0  0  0  0  0  0  0  0  0  0
    6.5103   -1.0187   -0.4983 C   0  0  0  0  0  0  0  0  0  0  0  0
   -2.5915   -2.5508   -0.8435 C   0  0  0  0  0  0  0  0  0  0  0  0
  1  2  1  0
  2  3  2  0
  3  4  1  0
  4  5  2  0
  5  6  1  0
  6  7  2  0
  7  8  1  0
  8  9  2  0
  9 10  1  0
 10 11  2  0
  7 12  1  0
 12 13  1  0
 13 14  1  0
 14 15  1  0
 15 16  1  0
 16 17  1  0
 15 18  1  0
 18 19  1  0
 19 20  2  0
 20 21  1  0
 21 22  2  0
 22 23  1  0
 23 24  1  0
 24 25  1  0
 25 26  2  0
 26 27  1  0
 27 28  2  0
 28 29  1  0
 29 30  2  0
  6 31  1  0
 11  2  1  0
  9  4  1  0
 17 12  1  0
 23 19  1  0
 30 25  1  0
M  END
$$$$
644394_decoys
     RDKit          3D

 20 21  0  0  0  0  0  0  0  0999 V2000
   -4.9602    0.3506    1.3971 C   0  0  0  0  0  0  0  0  0  0  0  0
   -4.0574    0.0994    0.2044 C   0  0  0  0  0  0  0  0  0  0  0  0
   -2.6492    0.5239    0.4958 C   0  0  0  0  0  0  0  0  0  0  0  0
   -2.2874    1.7097    0.7236 O   0  0  0  0  0  0  0  0  0  0  0  0
   -1.7493   -0.5728    0.4673 N   0  0  0  0  0  0  0  0  0  0  0  0
   -2.5624   -1.6740    0.1076 C   0  0  0  0  0  0  0  0  0  0  0  0
   -2.1161   -2.8371   -0.0741 O   0  0  0  0  0  0  0  0  0  0  0  0
   -3.9371   -1.3372   -0.0444 N   0  0  0  0  0  0  0  0  0  0  0  0
   -0.2964   -0.5011    0.3892 C   0  0  0  0  0  0  0  0  0  0  0  0
    0.1450   -0.0939   -1.0096 C   0  0  0  0  0  0  0  0  0  0  0  0
    1.6223    0.2488   -1.0047 C   0  0  0  0  0  0  0  0  0  0  0  0
    1.8337    1.4537   -0.3120 O   0  0  0  0  0  0  0  0  0  0  0  0
    3.1024    1.4075    0.3047 C   0  0  0  0  0  0  0  0  0  0  0  0
    4.2731    1.3957   -0.6986 C   0  0  0  0  0  0  0  0  0  0  0  0
    4.9614    0.0329   -0.7284 C   0  0  0  0  0  0  0  0  0  0  0  0
    5.5059   -0.3580    0.6526 C   0  0  0  0  0  0  0  0  0  0  0  0
    4.6506    0.1422    1.8267 C   0  0  0  0  0  0  0  0  0  0  0  0
    3.1952    0.3542    1.4234 C   0  0  0  0  0  0  0  0  0  0  0  0
   -0.0792   -1.1446   -1.8989 O   0  0  0  0  0  0  0  0  0  0  0  0
   -4.5953    0.7999   -1.0289 C   0  0  0  0  0  0  0  0  0  0  0  0
  1  2  1  0
  2  3  1  0
  3  4  2  0
  3  5  1  0
  5  6  1  0
  6  7  2  0
  6  8  1  0
  5  9  1  0
  9 10  1  0
 10 11  1  0
 11 12  1  0
 12 13  1  0
 13 14  1  0
 14 15  1  0
 15 16  1  0
 16 17  1  0
 17 18  1  0
 10 19  1  0
  2 20  1  0
  8  2  1  0
 18 13  1  0
M  END
$$$$
644395_decoys
     RDKit          3D

 10 11  0  0  0  0  0  0  0  0999 V2000
   -2.7789   -1.0156    0.5427 C   0  0  0  0  0  0  0  0  0  0  0  0
   -2.9291    0.4865    0.4815 C   0  0  0  0  0  0  0  0  0  0  0  0
   -2.1135   -0.2349   -0.5792 C   0  0  0  0  0  0  0  0  0  0  0  0
   -0.6472   -0.0774   -0.3104 C   0  0  0  0  0  0  0  0  0  0  0  0
    0.1716   -1.2047   -0.1760 C   0  0  0  0  0  0  0  0  0  0  0  0
    1.5433   -1.0371    0.0259 C   0  0  0  0  0  0  0  0  0  0  0  0
    2.0815    0.2114    0.0794 N   0  0  0  0  0  4  0  0  0  0  0  0
    1.3076    1.3204   -0.0701 C   0  0  0  0  0  0  0  0  0  0  0  0
   -0.0685    1.1967   -0.2737 C   0  0  0  0  0  0  0  0  0  0  0  0
    3.4333    0.3547    0.2799 O   0  0  0  0  0  1  0  0  0  0  0  0
  1  2  1  0
  2  3  1  0
  3  4  1  0
  4  5  2  0
  5  6  1  0
  6  7  2  0
  7  8  1  0
  8  9  2  0
  7 10  1  0
  3  1  1  0
  9  4  1  0
M  CHG  2   7   1  10  -1
M  END
$$$$
644396_decoys
     RDKit          3D

 20 21  0  0  0  0  0  0  0  0999 V2000
   -7.0396    0.8250   -1.1703 C   0  0  0  0  0  0  0  0  0  0  0  0
   -6.4150    0.1088   -0.1137 O   0  0  0  0  0  0  0  0  0  0  0  0
   -5.0268    0.0245    0.0239 C   0  0  0  0  0  0  0  0  0  0  0  0
   -4.4953   -0.7015    1.0941 C   0  0  0  0  0  0  0  0  0  0  0  0
   -3.1111   -0.8046    1.2592 C   0  0  0  0  0  0  0  0  0  0  0  0
   -2.2397   -0.1816    0.3542 C   0  0  0  0  0  0  0  0  0  0  0  0
   -2.7732    0.5462   -0.7186 C   0  0  0  0  0  0  0  0  0  0  0  0
   -4.1570    0.6494   -0.8839 C   0  0  0  0  0  0  0  0  0  0  0  0
   -0.7803   -0.2901    0.5280 C   0  0  0  0  0  0  0  0  0  0  0  0
   -0.3138   -0.9475    1.4975 O   0  0  0  0  0  0  0  0  0  0  0  0
    0.0968    0.3540   -0.4070 N   0  0  0  0  0  0  0  0  0  0  0  0
    1.5291    0.3398   -0.3803 C   0  0  0  0  0  0  0  0  0  0  0  0
    2.2741    0.9788   -1.3071 N   0  0  0  0  0  0  0  0  0  0  0  0
    3.5850    0.8405   -1.1148 N   0  0  0  0  0  0  0  0  0  0  0  0
    3.8933    0.1020   -0.0249 C   0  0  0  0  0  0  0  0  0  0  0  0
    2.5019   -0.4537    0.7484 S   0  0  0  0  0  0  0  0  0  0  0  0
    5.2900   -0.2612    0.3617 C   0  0  0  0  0  0  0  0  0  0  0  0
    5.4029   -0.2989    1.7393 F   0  0  0  0  0  0  0  0  0  0  0  0
    5.6004   -1.5044   -0.1557 F   0  0  0  0  0  0  0  0  0  0  0  0
    6.1782    0.6744   -0.1370 F   0  0  0  0  0  0  0  0  0  0  0  0
  1  2  1  0
  2  3  1  0
  3  4  2  0
  4  5  1  0
  5  6  2  0
  6  7  1  0
  7  8  2  0
  6  9  1  0
  9 10  2  0
  9 11  1  0
 11 12  1  0
 12 13  2  0
 13 14  1  0
 14 15  2  0
 15 16  1  0
 15 17  1  0
 17 18  1  0
 17 19  1  0
 17 20  1  0
  8  3  1  0
 16 12  1  0
M  END
$$$$
644397_decoys
     RDKit          3D

 27 29  0  0  0  0  0  0  0  0999 V2000
    7.2124    3.1659    0.8191 C   0  0  0  0  0  0  0  0  0  0  0  0
    7.6177    1.7065    0.9082 C   0  0  0  0  0  0  0  0  0  0  0  0
    6.8882    0.9355   -0.0404 O   0  0  0  0  0  0  0  0  0  0  0  0
    5.5609    0.5367    0.1528 C   0  0  0  0  0  0  0  0  0  0  0  0
    4.8665    0.8330    1.3367 C   0  0  0  0  0  0  0  0  0  0  0  0
    3.5420    0.4180    1.4995 C   0  0  0  0  0  0  0  0  0  0  0  0
    2.8964   -0.2980    0.4831 C   0  0  0  0  0  0  0  0  0  0  0  0
    3.5906   -0.5947   -0.6972 C   0  0  0  0  0  0  0  0  0  0  0  0
    4.9154   -0.1795   -0.8600 C   0  0  0  0  0  0  0  0  0  0  0  0
    1.5027   -0.7344    0.6534 C   0  0  0  0  0  0  0  0  0  0  0  0
    0.8035   -1.4234   -0.2708 N   0  0  0  0  0  0  0  0  0  0  0  0
   -0.3763   -1.5959    0.2980 N   0  0  0  0  0  0  0  0  0  0  0  0
   -0.4188   -1.0402    1.4959 N   0  0  0  0  0  0  0  0  0  0  0  0
    0.7569   -0.4901    1.7521 N   0  0  0  0  0  0  0  0  0  0  0  0
   -1.5042   -2.2546   -0.3388 C   0  0  0  0  0  0  0  0  0  0  0  0
   -2.2441   -1.2824   -1.2017 C   0  0  0  0  0  0  0  0  0  0  0  0
   -1.8984   -1.1759   -2.4082 O   0  0  0  0  0  0  0  0  0  0  0  0
   -3.3334   -0.4409   -0.6427 C   0  0  0  0  0  0  0  0  0  0  0  0
   -4.0196    0.5231   -1.4193 C   0  0  0  0  0  0  0  0  0  0  0  0
   -5.0395    1.2869   -0.8269 C   0  0  0  0  0  0  0  0  0  0  0  0
   -5.3812    1.1062    0.5132 C   0  0  0  0  0  0  0  0  0  0  0  0
   -4.7112    0.1594    1.2870 C   0  0  0  0  0  0  0  0  0  0  0  0
   -3.6934   -0.6078    0.7041 C   0  0  0  0  0  0  0  0  0  0  0  0
   -5.0731    0.0004    2.6274 O   0  0  0  0  0  0  0  0  0  0  0  0
   -4.4391   -0.9368    3.4872 C   0  0  0  0  0  0  0  0  0  0  0  0
   -3.6851    0.7154   -2.7657 O   0  0  0  0  0  0  0  0  0  0  0  0
   -4.3359    1.6675   -3.5965 C   0  0  0  0  0  0  0  0  0  0  0  0
  1  2  1  0
  2  3  1  0
  3  4  1  0
  4  5  2  0
  5  6  1  0
  6  7  2  0
  7  8  1  0
  8  9  2  0
  7 10  1  0
 10 11  2  0
 11 12  1  0
 12 13  1  0
 13 14  2  0
 12 15  1  0
 15 16  1  0
 16 17  2  0
 16 18  1  0
 18 19  2  0
 19 20  1  0
 20 21  2  0
 21 22  1  0
 22 23  2  0
 22 24  1  0
 24 25  1  0
 19 26  1  0
 26 27  1  0
  9  4  1  0
 14 10  1  0
 23 18  1  0
M  END
$$$$
5770444_decoys
     RDKit          3D

 29 33  0  0  0  0  0  0  0  0999 V2000
   -7.2868   -0.2921   -4.1311 C   0  0  0  0  0  0  0  0  0  0  0  0
   -6.2720   -0.2573   -3.0462 C   0  0  0  0  0  0  0  0  0  0  0  0
   -5.3647   -1.3110   -2.9038 C   0  0  0  0  0  0  0  0  0  0  0  0
   -4.4099   -1.2783   -1.8831 C   0  0  0  0  0  0  0  0  0  0  0  0
   -4.3579   -0.1914   -0.9995 C   0  0  0  0  0  0  0  0  0  0  0  0
   -5.2698    0.8620   -1.1472 C   0  0  0  0  0  0  0  0  0  0  0  0
   -6.2246    0.8292   -2.1681 C   0  0  0  0  0  0  0  0  0  0  0  0
   -3.3558   -0.1522    0.0739 C   0  0  0  0  0  0  0  0  0  0  0  0
   -2.4378   -1.1145    0.2941 N   0  0  0  0  0  0  0  0  0  0  0  0
   -1.7243   -0.7169    1.3360 N   0  0  0  0  0  0  0  0  0  0  0  0
   -2.2360    0.4700    1.7097 C   0  0  0  0  0  0  0  0  0  0  0  0
   -3.2365    0.8252    0.9414 O   0  0  0  0  0  0  0  0  0  0  0  0
   -1.7109    1.2840    2.8415 C   0  0  0  0  0  0  0  0  0  0  0  0
   -0.8787    2.7772    2.2163 S   0  0  0  0  0  0  0  0  0  0  0  0
    0.5971    1.8857    1.7405 C   0  0  0  0  0  0  0  0  0  0  0  0
    0.7102    1.3843    0.4731 N   0  0  0  0  0  0  0  0  0  0  0  0
    1.8393    0.7092    0.1583 C   0  0  0  0  0  0  0  0  0  0  0  0
    2.8309    0.5387    1.0757 C   0  0  0  0  0  0  0  0  0  0  0  0
    3.8190   -0.1736    0.4646 C   0  0  0  0  0  0  0  0  0  0  0  0
    3.3552   -0.3980   -0.8186 C   0  0  0  0  0  0  0  0  0  0  0  0
    2.1270    0.1404   -1.0346 N   0  0  0  0  0  0  0  0  0  0  0  0
    4.1188   -1.1093   -1.7402 C   0  0  0  0  0  0  0  0  0  0  0  0
    5.3739   -1.5898   -1.3221 C   0  0  0  0  0  0  0  0  0  0  0  0
    5.8460   -1.3592   -0.0093 C   0  0  0  0  0  0  0  0  0  0  0  0
    5.0531   -0.6346    0.9088 C   0  0  0  0  0  0  0  0  0  0  0  0
    7.1002   -1.8605    0.3497 O   0  0  0  0  0  0  0  0  0  0  0  0
    7.6576   -1.6793    1.6442 C   0  0  0  0  0  0  0  0  0  0  0  0
    2.7261    1.0354    2.3271 N   0  0  0  0  0  0  0  0  0  0  0  0
    1.6112    1.7045    2.6489 N   0  0  0  0  0  0  0  0  0  0  0  0
  1  2  1  0
  2  3  2  0
  3  4  1  0
  4  5  2  0
  5  6  1  0
  6  7  2  0
  5  8  1  0
  8  9  2  0
  9 10  1  0
 10 11  2  0
 11 12  1  0
 11 13  1  0
 13 14  1  0
 14 15  1  0
 15 16  2  0
 16 17  1  0
 17 18  2  0
 18 19  1  0
 19 20  2  0
 20 21  1  0
 20 22  1  0
 22 23  2  0
 23 24  1  0
 24 25  2  0
 24 26  1  0
 26 27  1  0
 18 28  1  0
 28 29  2  0
  7  2  1  0
 12  8  1  0
 29 15  1  0
 21 17  1  0
 25 19  1  0
M  END
$$$$
644399_decoys
     RDKit          3D

 24 26  0  0  0  0  0  0  0  0999 V2000
    4.7863    2.3592    0.1956 C   0  0  0  0  0  0  0  0  0  0  0  0
    3.2868    2.3577    0.4232 C   0  0  0  0  0  0  0  0  0  0  0  0
    2.9299    3.4603    1.3971 C   0  0  0  0  0  0  0  0  0  0  0  0
    2.8429    1.0208    0.9948 C   0  0  0  0  0  0  0  0  0  0  0  0
    2.8210   -0.0629   -0.0753 C   0  0  0  0  0  0  0  0  0  0  0  0
    1.7636    0.1930   -1.0432 N   0  0  0  0  0  0  0  0  0  0  0  0
    0.4576   -0.1013   -0.9497 C   0  0  0  0  0  0  0  0  0  0  0  0
   -0.1834    0.3107   -2.0606 N   0  0  0  0  0  0  0  0  0  0  0  0
    0.7564    0.8682   -2.8144 N   0  0  0  0  0  0  0  0  0  0  0  0
    1.9304    0.8005   -2.2028 N   0  0  0  0  0  0  0  0  0  0  0  0
   -0.1852   -0.8228    0.2125 C   0  0  0  0  0  0  0  0  0  0  0  0
   -0.7107   -2.1801   -0.1474 C   0  0  0  0  0  0  0  0  0  0  0  0
   -1.7497   -2.3391   -1.0768 C   0  0  0  0  0  0  0  0  0  0  0  0
   -2.2218   -3.6166   -1.3916 C   0  0  0  0  0  0  0  0  0  0  0  0
   -1.6588   -4.7399   -0.7791 C   0  0  0  0  0  0  0  0  0  0  0  0
   -0.6242   -4.5857    0.1483 C   0  0  0  0  0  0  0  0  0  0  0  0
   -0.1519   -3.3080    0.4634 C   0  0  0  0  0  0  0  0  0  0  0  0
   -1.1535   -0.0324    0.9913 N   0  0  0  0  0  0  0  0  0  0  0  0
   -0.4302    1.0219    1.7057 C   0  0  0  0  0  0  0  0  0  0  0  0
   -1.4080    1.8439    2.5435 C   0  0  0  0  0  0  0  0  0  0  0  0
   -2.4097    2.4556    1.6727 N   0  0  0  0  0  0  0  0  0  0  0  0
   -3.1456    1.3953    0.9869 C   0  0  0  0  0  0  0  0  0  0  0  0
   -2.1836    0.5699    0.1347 C   0  0  0  0  0  0  0  0  0  0  0  0
   -3.3588    3.1320    2.5373 C   0  0  0  0  0  0  0  0  0  0  0  0
  1  2  1  0
  2  3  1  0
  2  4  1  0
  4  5  1  0
  5  6  1  0
  6  7  1  0
  7  8  2  0
  8  9  1  0
  9 10  2  0
  7 11  1  0
 11 12  1  0
 12 13  2  0
 13 14  1  0
 14 15  2  0
 15 16  1  0
 16 17  2  0
 11 18  1  0
 18 19  1  0
 19 20  1  0
 20 21  1  0
 21 22  1  0
 22 23  1  0
 21 24  1  0
 10  6  1  0
 17 12  1  0
 23 18  1  0
M  END
$$$$
644400_decoys
     RDKit          3D

 34 37  0  0  0  0  0  0  0  0999 V2000
   -7.7279   -0.0438   -2.1103 C   0  0  0  0  0  0  0  0  0  0  0  0
   -7.1406    0.2081   -0.7688 C   0  0  0  0  0  0  0  0  0  0  0  0
   -5.7537    0.2690   -0.6140 C   0  0  0  0  0  0  0  0  0  0  0  0
   -5.1847    0.5063    0.6473 C   0  0  0  0  0  0  0  0  0  0  0  0
   -6.0322    0.6824    1.7572 C   0  0  0  0  0  0  0  0  0  0  0  0
   -7.4203    0.6205    1.5971 C   0  0  0  0  0  0  0  0  0  0  0  0
   -7.9743    0.3839    0.3370 C   0  0  0  0  0  0  0  0  0  0  0  0
   -5.4773    0.9374    3.1169 C   0  0  0  0  0  0  0  0  0  0  0  0
   -3.7602    0.5731    0.8237 N   0  0  0  0  0  0  0  0  0  0  0  0
   -2.7594    0.4178   -0.1907 C   0  0  0  0  0  0  0  0  0  0  0  0
   -3.0715    0.2053   -1.3922 O   0  0  0  0  0  0  0  0  0  0  0  0
   -1.3254    0.5447    0.1772 C   0  0  0  0  0  0  0  0  0  0  0  0
   -0.8251    2.2882    0.1021 S   0  0  0  0  0  0  0  0  0  0  0  0
    0.9095    1.8721    0.2560 C   0  0  0  0  0  0  0  0  0  0  0  0
    1.5409    1.7244    1.4362 N   0  0  0  0  0  0  0  0  0  0  0  0
    2.8035    1.4252    1.1620 N   0  0  0  0  0  0  0  0  0  0  0  0
    2.9196    1.4010   -0.1801 C   0  0  0  0  0  0  0  0  0  0  0  0
    1.7467    1.6789   -0.7781 N   0  0  0  0  0  0  0  0  0  0  0  0
    1.4450    1.7487   -2.2031 C   0  0  0  0  0  0  0  0  0  0  0  0
    1.1879    0.3864   -2.7547 C   0  0  0  0  0  0  0  0  0  0  0  0
    1.6815   -0.0829   -3.9505 C   0  0  0  0  0  0  0  0  0  0  0  0
    1.1784   -1.3680   -4.0575 C   0  0  0  0  0  0  0  0  0  0  0  0
    0.4116   -1.5895   -2.9260 C   0  0  0  0  0  0  0  0  0  0  0  0
    0.4403   -0.5163   -2.1742 O   0  0  0  0  0  0  0  0  0  0  0  0
    4.1893    1.0688   -0.8937 C   0  0  0  0  0  0  0  0  0  0  0  0
    4.2271   -0.6893   -1.3696 S   0  0  0  0  0  0  0  0  0  0  0  0
    4.6082   -1.2529    0.2840 C   0  0  0  0  0  0  0  0  0  0  0  0
    3.6045   -1.6232    1.1224 N   0  0  0  0  0  0  0  0  0  0  0  0
    3.8726   -2.0511    2.3833 C   0  0  0  0  0  0  0  0  0  0  0  0
    5.1914   -2.1191    2.8303 C   0  0  0  0  0  0  0  0  0  0  0  0
    6.2076   -1.7405    1.9538 C   0  0  0  0  0  0  0  0  0  0  0  0
    5.9005   -1.3162    0.7001 N   0  0  0  0  0  0  0  0  0  0  0  0
    7.6265   -1.8001    2.3910 C   0  0  0  0  0  0  0  0  0  0  0  0
    2.7601   -2.4451    3.2860 C   0  0  0  0  0  0  0  0  0  0  0  0
  1  2  1  0
  2  3  2  0
  3  4  1  0
  4  5  2  0
  5  6  1  0
  6  7  2  0
  5  8  1  0
  4  9  1  0
  9 10  1  0
 10 11  2  0
 10 12  1  0
 12 13  1  0
 13 14  1  0
 14 15  2  0
 15 16  1  0
 16 17  2  0
 17 18  1  0
 18 19  1  0
 19 20  1  0
 20 21  2  0
 21 22  1  0
 22 23  2  0
 23 24  1  0
 17 25  1  0
 25 26  1  0
 26 27  1  0
 27 28  2  0
 28 29  1  0
 29 30  2  0
 30 31  1  0
 31 32  2  0
 31 33  1  0
 29 34  1  0
  7  2  1  0
 18 14  1  0
 24 20  1  0
 32 27  1  0
M  END
$$$$
644402_decoys
     RDKit          3D

 29 33  0  0  0  0  0  0  0  0999 V2000
    8.0431    0.8323   -0.3962 C   0  0  0  0  0  0  0  0  0  0  0  0
    8.0585   -0.5162    0.3319 C   0  0  0  0  0  0  0  0  0  0  0  0
    6.8927   -1.3976   -0.1311 C   0  0  0  0  0  0  0  0  0  0  0  0
    5.6161   -0.6169   -0.1316 C   0  0  0  0  0  0  0  0  0  0  0  0
    5.5529    0.7705   -0.1749 C   0  0  0  0  0  0  0  0  0  0  0  0
    6.7780    1.6263   -0.0477 C   0  0  0  0  0  0  0  0  0  0  0  0
    4.2990    1.2850   -0.2536 N   0  0  0  0  0  0  0  0  0  0  0  0
    3.3717    0.3003   -0.3123 C   0  0  0  0  0  0  0  0  0  0  0  0
    4.0598   -1.2375   -0.2596 S   0  0  0  0  0  0  0  0  0  0  0  0
    1.9642    0.5309   -0.4182 N   0  0  0  0  0  0  0  0  0  0  0  0
    1.3433    1.8204   -0.4432 C   0  0  0  0  0  0  0  0  0  0  0  0
    2.0280    2.8743   -0.3535 O   0  0  0  0  0  0  0  0  0  0  0  0
   -0.1383    1.9155   -0.5455 C   0  0  0  0  0  0  0  0  0  0  0  0
   -0.8726    2.1406    1.1033 S   0  0  0  0  0  0  0  0  0  0  0  0
   -0.8626    0.3813    1.4613 C   0  0  0  0  0  0  0  0  0  0  0  0
    0.1460   -0.2311    2.1066 N   0  0  0  0  0  0  0  0  0  0  0  0
   -0.2039   -1.5083    2.1614 N   0  0  0  0  0  0  0  0  0  0  0  0
   -1.3788   -1.6821    1.5760 N   0  0  0  0  0  0  0  0  0  0  0  0
   -1.8162   -0.5165    1.1301 N   0  0  0  0  0  0  0  0  0  0  0  0
   -3.0677   -0.3399    0.4402 C   0  0  0  0  0  0  0  0  0  0  0  0
   -3.8266   -1.4659    0.0814 C   0  0  0  0  0  0  0  0  0  0  0  0
   -5.0496   -1.3134   -0.5752 C   0  0  0  0  0  0  0  0  0  0  0  0
   -5.5191   -0.0335   -0.8972 C   0  0  0  0  0  0  0  0  0  0  0  0
   -4.7814    1.0937   -0.5339 C   0  0  0  0  0  0  0  0  0  0  0  0
   -3.5620    0.9381    0.1322 C   0  0  0  0  0  0  0  0  0  0  0  0
   -6.7286    0.0933   -1.5860 O   0  0  0  0  0  0  0  0  0  0  0  0
   -7.3390   -1.0393   -2.2090 C   0  0  0  0  0  0  0  0  0  0  0  0
   -7.1848   -2.2770   -1.3221 C   0  0  0  0  0  0  0  0  0  0  0  0
   -5.8221   -2.4275   -0.9167 O   0  0  0  0  0  0  0  0  0  0  0  0
  1  2  1  0
  2  3  1  0
  3  4  1  0
  4  5  2  0
  5  6  1  0
  5  7  1  0
  7  8  2  0
  8  9  1  0
  8 10  1  0
 10 11  1  0
 11 12  2  0
 11 13  1  0
 13 14  1  0
 14 15  1  0
 15 16  2  0
 16 17  1  0
 17 18  2  0
 18 19  1  0
 19 20  1  0
 20 21  2  0
 21 22  1  0
 22 23  2  0
 23 24  1  0
 24 25  2  0
 23 26  1  0
 26 27  1  0
 27 28  1  0
 28 29  1  0
  6  1  1  0
  9  4  1  0
 19 15  1  0
 25 20  1  0
 29 22  1  0
M  END
$$$$
644403_decoys
     RDKit          3D

 32 36  0  0  0  0  0  0  0  0999 V2000
    5.8455    0.2212   -2.9989 C   0  0  0  0  0  0  0  0  0  0  0  0
    4.9440    0.9282   -4.0154 C   0  0  0  0  0  0  0  0  0  0  0  0
    3.7470    1.5825   -3.3180 C   0  0  0  0  0  0  0  0  0  0  0  0
    3.1084    0.6242   -2.3616 C   0  0  0  0  0  0  0  0  0  0  0  0
    3.7500   -0.4872   -1.8263 C   0  0  0  0  0  0  0  0  0  0  0  0
    5.0968   -0.9328   -2.3222 C   0  0  0  0  0  0  0  0  0  0  0  0
    2.9626   -1.1910   -0.9024 C   0  0  0  0  0  0  0  0  0  0  0  0
    1.7239   -0.5796   -0.6844 C   0  0  0  0  0  0  0  0  0  0  0  0
    1.5868    0.7800   -1.6684 S   0  0  0  0  0  0  0  0  0  0  0  0
    0.6590   -1.0517    0.1474 N   0  0  0  0  0  0  0  0  0  0  0  0
    0.8080   -1.6736    1.4272 C   0  0  0  0  0  0  0  0  0  0  0  0
    1.9195   -1.6842    2.0195 O   0  0  0  0  0  0  0  0  0  0  0  0
   -0.3979   -2.2219    2.1084 C   0  0  0  0  0  0  0  0  0  0  0  0
   -1.0180   -1.0828    3.3942 S   0  0  0  0  0  0  0  0  0  0  0  0
   -1.4351    0.2368    2.2402 C   0  0  0  0  0  0  0  0  0  0  0  0
   -0.4956    1.1874    1.9954 N   0  0  0  0  0  0  0  0  0  0  0  0
   -0.7243    2.1989    1.1257 C   0  0  0  0  0  0  0  0  0  0  0  0
    0.2690    3.1519    0.8826 C   0  0  0  0  0  0  0  0  0  0  0  0
    0.0341    4.1904   -0.0232 C   0  0  0  0  0  0  0  0  0  0  0  0
   -1.1939    4.2785   -0.6862 C   0  0  0  0  0  0  0  0  0  0  0  0
   -2.1909    3.3285   -0.4446 C   0  0  0  0  0  0  0  0  0  0  0  0
   -1.9609    2.2835    0.4625 C   0  0  0  0  0  0  0  0  0  0  0  0
   -2.9310    1.3098    0.7351 C   0  0  0  0  0  0  0  0  0  0  0  0
   -4.0573    1.3694    0.1653 O   0  0  0  0  0  0  0  0  0  0  0  0
   -2.6562    0.2974    1.6174 N   0  0  0  0  0  0  0  0  0  0  0  0
   -3.6757   -0.7200    1.8839 C   0  0  0  0  0  0  0  0  0  0  0  0
   -3.5267   -1.8821    0.9553 C   0  0  0  0  0  0  0  0  0  0  0  0
   -3.5516   -1.8196   -0.4214 C   0  0  0  0  0  0  0  0  0  0  0  0
   -3.3811   -3.1288   -0.8360 C   0  0  0  0  0  0  0  0  0  0  0  0
   -3.2689   -3.8961    0.3110 C   0  0  0  0  0  0  0  0  0  0  0  0
   -3.3630   -3.1147    1.3595 O   0  0  0  0  0  0  0  0  0  0  0  0
    3.3735   -2.5025   -0.3215 C   0  0  0  0  0  0  0  0  0  0  0  0
  1  2  1  0
  2  3  1  0
  3  4  1  0
  4  5  2  0
  5  6  1  0
  5  7  1  0
  7  8  2  0
  8  9  1  0
  8 10  1  0
 10 11  1  0
 11 12  2  0
 11 13  1  0
 13 14  1  0
 14 15  1  0
 15 16  2  0
 16 17  1  0
 17 18  2  0
 18 19  1  0
 19 20  2  0
 20 21  1  0
 21 22  2  0
 22 23  1  0
 23 24  2  0
 23 25  1  0
 25 26  1  0
 26 27  1  0
 27 28  2  0
 28 29  1  0
 29 30  2  0
 30 31  1  0
  7 32  1  0
  6  1  1  0
  9  4  1  0
 25 15  1  0
 22 17  1  0
 31 27  1  0
M  END
$$$$
644404_decoys
     RDKit          3D

 16 18  0  0  0  0  0  0  0  0999 V2000
   -4.4219   -0.0918    0.8040 C   0  0  0  0  0  0  0  0  0  0  0  0
   -3.4641    0.3490   -0.2849 C   0  0  0  0  0  0  0  0  0  0  0  0
   -2.3432    1.2446    0.3312 C   0  0  0  0  0  0  0  0  0  0  0  0
   -1.1593    0.4803    0.0250 N   0  0  0  0  0  0  0  0  0  0  0  0
    0.1624    0.4640    0.1700 C   0  0  0  0  0  0  0  0  0  0  0  0
    0.6190   -0.6884   -0.4062 C   0  0  0  0  0  0  0  0  0  0  0  0
   -0.4003   -1.4289   -0.9240 N   0  0  0  0  0  0  0  0  0  0  0  0
   -1.4522   -0.6300   -0.6096 C   0  0  0  0  0  0  0  0  0  0  0  0
   -2.7946   -0.8010   -0.8379 O   0  0  0  0  0  0  0  0  0  0  0  0
    1.9426   -0.9989   -0.4162 N   0  0  0  0  0  0  0  0  0  0  0  0
    2.8210   -0.1175    0.1727 C   0  0  0  0  0  0  0  0  0  0  0  0
    4.0572   -0.3632    0.1865 O   0  0  0  0  0  0  0  0  0  0  0  0
    2.3619    1.0402    0.7532 N   0  0  0  0  0  0  0  0  0  0  0  0
    1.0345    1.3557    0.7668 C   0  0  0  0  0  0  0  0  0  0  0  0
    0.6285    2.4193    1.3037 O   0  0  0  0  0  0  0  0  0  0  0  0
    2.4083   -2.2335   -1.0343 C   0  0  0  0  0  0  0  0  0  0  0  0
  1  2  1  0
  2  3  1  0
  3  4  1  0
  4  5  1  0
  5  6  2  0
  6  7  1  0
  7  8  2  0
  8  9  1  0
  6 10  1  0
 10 11  1  0
 11 12  2  0
 11 13  1  0
 13 14  1  0
 14 15  2  0
 10 16  1  0
  9  2  1  0
  8  4  1  0
 14  5  1  0
M  END
$$$$
644405_decoys
     RDKit          3D

 35 39  0  0  0  0  0  0  0  0999 V2000
   -1.3461    2.8818    2.1657 C   0  0  0  0  0  0  0  0  0  0  0  0
   -1.6488    2.4208    0.8136 N   0  0  0  0  0  0  0  0  0  0  0  0
   -0.8333    3.0876   -0.2196 C   0  0  0  0  0  0  0  0  0  0  0  0
   -1.5464    4.3506   -0.7181 C   0  0  0  0  0  0  0  0  0  0  0  0
   -0.5902    5.2231   -1.5247 C   0  0  0  0  0  0  0  0  0  0  0  0
    0.5963    5.7030   -0.6762 C   0  0  0  0  0  0  0  0  0  0  0  0
    0.9120    4.7914    0.5163 C   0  0  0  0  0  0  0  0  0  0  0  0
    0.6441    3.3261    0.1821 C   0  0  0  0  0  0  0  0  0  0  0  0
   -1.5935    0.9496    0.7619 C   0  0  0  0  0  0  0  0  0  0  0  0
   -0.2053    0.3493    0.7006 C   0  0  0  0  0  0  0  0  0  0  0  0
    0.4520    0.1925   -0.5284 C   0  0  0  0  0  0  0  0  0  0  0  0
    1.7265   -0.3664   -0.5729 C   0  0  0  0  0  0  0  0  0  0  0  0
    2.3929   -0.5239   -1.7881 C   0  0  0  0  0  0  0  0  0  0  0  0
    3.6795   -1.0881   -1.8233 C   0  0  0  0  0  0  0  0  0  0  0  0
    4.2949   -1.4947   -0.6270 C   0  0  0  0  0  0  0  0  0  0  0  0
    3.6183   -1.3338    0.5946 C   0  0  0  0  0  0  0  0  0  0  0  0
    2.3409   -0.7729    0.6261 C   0  0  0  0  0  0  0  0  0  0  0  0
    1.6884   -0.6206    1.8082 N   0  0  0  0  0  0  0  0  0  0  0  0
    0.4425   -0.0772    1.8745 C   0  0  0  0  0  0  0  0  0  0  0  0
   -0.1242    0.0334    2.9941 O   0  0  0  0  0  0  0  0  0  0  0  0
    5.5760   -2.0550   -0.6757 O   0  0  0  0  0  0  0  0  0  0  0  0
    6.2694   -2.4923    0.4853 C   0  0  0  0  0  0  0  0  0  0  0  0
    4.3635   -1.2537   -3.0325 O   0  0  0  0  0  0  0  0  0  0  0  0
    3.8146   -0.8698   -4.2859 C   0  0  0  0  0  0  0  0  0  0  0  0
   -2.5283    0.3808   -0.2673 C   0  0  0  0  0  0  0  0  0  0  0  0
   -2.8340    0.9652   -1.4415 N   0  0  0  0  0  0  0  0  0  0  0  0
   -3.5939    0.0825   -2.0782 N   0  0  0  0  0  0  0  0  0  0  0  0
   -3.7412   -1.0081   -1.3395 N   0  0  0  0  0  0  0  0  0  0  0  0
   -3.0883   -0.8369   -0.2039 N   0  0  0  0  0  0  0  0  0  0  0  0
   -2.9156   -1.8425    0.8372 C   0  0  0  0  0  0  0  0  0  0  0  0
   -4.2720   -2.4340    1.2571 C   0  0  0  0  0  0  0  0  0  0  0  0
   -4.5344   -3.7757    0.5772 C   0  0  0  0  0  0  0  0  0  0  0  0
   -3.4559   -4.8060    0.9388 C   0  0  0  0  0  0  0  0  0  0  0  0
   -2.0680   -4.1914    1.1706 C   0  0  0  0  0  0  0  0  0  0  0  0
   -1.8925   -2.8951    0.3867 C   0  0  0  0  0  0  0  0  0  0  0  0
  1  2  1  0
  2  3  1  0
  3  4  1  0
  4  5  1  0
  5  6  1  0
  6  7  1  0
  7  8  1  0
  2  9  1  0
  9 10  1  0
 10 11  2  0
 11 12  1  0
 12 13  2  0
 13 14  1  0
 14 15  2  0
 15 16  1  0
 16 17  2  0
 17 18  1  0
 18 19  1  0
 19 20  2  0
 15 21  1  0
 21 22  1  0
 14 23  1  0
 23 24  1  0
  9 25  1  0
 25 26  2  0
 26 27  1  0
 27 28  2  0
 28 29  1  0
 29 30  1  0
 30 31  1  0
 31 32  1  0
 32 33  1  0
 33 34  1  0
 34 35  1  0
  8  3  1  0
 19 10  1  0
 17 12  1  0
 29 25  1  0
 35 30  1  0
M  END
$$$$
644406_decoys
     RDKit          3D

 24 26  0  0  0  0  0  0  0  0999 V2000
   -3.8944    2.6656   -0.1472 C   0  0  0  0  0  0  0  0  0  0  0  0
   -4.9584    1.6208   -0.1837 C   0  0  0  0  0  0  0  0  0  0  0  0
   -6.1628    1.9852   -0.2468 O   0  0  0  0  0  0  0  0  0  0  0  0
   -4.6180    0.1854   -0.1471 C   0  0  0  0  0  0  0  0  0  0  0  0
   -3.2805   -0.2308   -0.0768 C   0  0  0  0  0  0  0  0  0  0  0  0
   -2.9505   -1.5936   -0.0417 C   0  0  0  0  0  0  0  0  0  0  0  0
   -3.9761   -2.5437   -0.0777 C   0  0  0  0  0  0  0  0  0  0  0  0
   -5.3122   -2.1415   -0.1477 C   0  0  0  0  0  0  0  0  0  0  0  0
   -5.6319   -0.7821   -0.1822 C   0  0  0  0  0  0  0  0  0  0  0  0
   -1.5916   -2.0519    0.0302 N   0  0  0  0  0  0  0  0  0  0  0  0
   -0.3864   -1.2725    0.0771 C   0  0  0  0  0  0  0  0  0  0  0  0
    0.8091   -1.9141    0.1438 N   0  0  0  0  0  0  0  0  0  0  0  0
    1.9638   -1.2464    0.1899 N   0  0  0  0  0  0  0  0  0  0  0  0
    2.0113    0.1143    0.1729 C   0  0  0  0  0  0  0  0  0  0  0  0
    0.8042    0.8199    0.1047 C   0  0  0  0  0  0  0  0  0  0  0  0
   -0.3992    0.1236    0.0567 C   0  0  0  0  0  0  0  0  0  0  0  0
    3.3121    0.8393    0.2252 C   0  0  0  0  0  0  0  0  0  0  0  0
    3.3051    2.2459    0.2049 C   0  0  0  0  0  0  0  0  0  0  0  0
    4.4931    2.9757    0.2518 C   0  0  0  0  0  0  0  0  0  0  0  0
    5.7149    2.3107    0.3201 C   0  0  0  0  0  0  0  0  0  0  0  0
    5.7472    0.9169    0.3414 C   0  0  0  0  0  0  0  0  0  0  0  0
    4.5590    0.1668    0.2948 C   0  0  0  0  0  0  0  0  0  0  0  0
    4.6118   -1.2325    0.3172 O   0  0  0  0  0  0  0  0  0  0  0  0
    5.8304   -1.9612    0.3863 C   0  0  0  0  0  0  0  0  0  0  0  0
  1  2  1  0
  2  3  2  0
  2  4  1  0
  4  5  2  0
  5  6  1  0
  6  7  2  0
  7  8  1  0
  8  9  2  0
  6 10  1  0
 10 11  1  0
 11 12  2  0
 12 13  1  0
 13 14  2  0
 14 15  1  0
 15 16  2  0
 14 17  1  0
 17 18  2  0
 18 19  1  0
 19 20  2  0
 20 21  1  0
 21 22  2  0
 22 23  1  0
 23 24  1  0
  9  4  1  0
 16 11  1  0
 22 17  1  0
M  END
$$$$
644407_decoys
     RDKit          3D

 24 27  0  0  0  0  0  0  0  0999 V2000
   -3.0581   -3.7095    0.7102 C   0  0  0  0  0  0  0  0  0  0  0  0
   -3.5486   -2.5015    1.4860 C   0  0  0  0  0  0  0  0  0  0  0  0
   -2.6916   -1.3892    1.2535 O   0  0  0  0  0  0  0  0  0  0  0  0
   -2.7404   -0.6082    0.0904 C   0  0  0  0  0  0  0  0  0  0  0  0
   -3.7081   -0.8435   -0.9009 C   0  0  0  0  0  0  0  0  0  0  0  0
   -3.7454   -0.0596   -2.0560 C   0  0  0  0  0  0  0  0  0  0  0  0
   -2.8166    0.9669   -2.2326 C   0  0  0  0  0  0  0  0  0  0  0  0
   -1.8516    1.2102   -1.2535 C   0  0  0  0  0  0  0  0  0  0  0  0
   -1.8084    0.4300   -0.0869 C   0  0  0  0  0  0  0  0  0  0  0  0
   -0.7615    0.6830    0.9635 C   0  0  0  0  0  0  0  0  0  0  0  0
   -0.9086    2.0711    1.6053 C   0  0  0  0  0  0  0  0  0  0  0  0
   -0.2088    3.1336    0.8110 C   0  0  0  0  0  0  0  0  0  0  0  0
   -0.6384    4.3156    0.8290 O   0  0  0  0  0  0  0  0  0  0  0  0
    0.9837    2.8187    0.0889 N   0  0  0  0  0  0  0  0  0  0  0  0
    1.4380    1.4673   -0.0150 C   0  0  0  0  0  0  0  0  0  0  0  0
    2.6910    1.1963   -0.5736 C   0  0  0  0  0  0  0  0  0  0  0  0
    3.1413   -0.1229   -0.6635 C   0  0  0  0  0  0  0  0  0  0  0  0
    2.3506   -1.1724   -0.1742 C   0  0  0  0  0  0  0  0  0  0  0  0
    1.0889   -0.9088    0.3636 C   0  0  0  0  0  0  0  0  0  0  0  0
    0.6281    0.4106    0.4487 C   0  0  0  0  0  0  0  0  0  0  0  0
    2.8409   -2.4796   -0.2386 O   0  0  0  0  0  0  0  0  0  0  0  0
    4.2188   -2.7317   -0.5229 C   0  0  0  0  0  0  0  0  0  0  0  0
    4.7243   -1.7594   -1.5910 C   0  0  0  0  0  0  0  0  0  0  0  0
    4.3804   -0.4172   -1.2391 O   0  0  0  0  0  0  0  0  0  0  0  0
  1  2  1  0
  2  3  1  0
  3  4  1  0
  4  5  2  0
  5  6  1  0
  6  7  2  0
  7  8  1  0
  8  9  2  0
  9 10  1  0
 10 11  1  0
 11 12  1  0
 12 13  2  0
 12 14  1  0
 14 15  1  0
 15 16  2  0
 16 17  1  0
 17 18  2  0
 18 19  1  0
 19 20  2  0
 18 21  1  0
 21 22  1  0
 22 23  1  0
 23 24  1  0
  9  4  1  0
 20 10  1  0
 20 15  1  0
 24 17  1  0
M  END
$$$$
644408_decoys
     RDKit          3D

 31 33  0  0  0  0  0  0  0  0999 V2000
   -7.5476    1.6333   -1.7561 C   0  0  0  0  0  0  0  0  0  0  0  0
   -8.1262    1.2452   -0.4154 C   0  0  0  0  0  0  0  0  0  0  0  0
   -7.0727    0.3772    0.2300 C   0  0  0  0  0  0  0  0  0  0  0  0
   -5.7445    0.8952   -0.2890 C   0  0  0  0  0  0  0  0  0  0  0  0
   -6.0428    1.6552   -1.5693 C   0  0  0  0  0  0  0  0  0  0  0  0
   -4.8503   -0.2161   -0.5756 N   0  0  0  0  0  0  0  0  0  0  0  0
   -4.1789   -0.9496    0.4503 C   0  0  0  0  0  0  0  0  0  0  0  0
   -4.3242   -0.6385    1.6622 O   0  0  0  0  0  0  0  0  0  0  0  0
   -3.2620   -2.0644    0.0797 C   0  0  0  0  0  0  0  0  0  0  0  0
   -1.9706   -1.5327   -0.3366 N   0  0  0  0  0  0  0  0  0  0  0  0
   -1.8065   -1.2330   -1.7614 C   0  0  0  0  0  0  0  0  0  0  0  0
   -0.6345   -1.9762   -2.3683 C   0  0  0  0  0  0  0  0  0  0  0  0
   -0.1082   -1.0544   -3.4432 C   0  0  0  0  0  0  0  0  0  0  0  0
   -0.3979    0.3510   -2.9557 C   0  0  0  0  0  0  0  0  0  0  0  0
   -1.5847    0.2486   -2.0140 C   0  0  0  0  0  0  0  0  0  0  0  0
   -0.9412   -1.3148    0.6517 C   0  0  0  0  0  0  0  0  0  0  0  0
   -1.1311   -1.6663    1.8473 O   0  0  0  0  0  0  0  0  0  0  0  0
    0.3536   -0.6603    0.2997 C   0  0  0  0  0  0  0  0  0  0  0  0
    0.3423    1.0594    0.8421 S   0  0  0  0  0  0  0  0  0  0  0  0
    0.9857    1.0068    2.2214 O   0  0  0  0  0  0  0  0  0  0  0  0
    1.5724    1.8876   -0.1927 C   0  0  0  0  0  0  0  0  0  0  0  0
    2.8762    1.1665   -0.1714 C   0  0  0  0  0  0  0  0  0  0  0  0
    3.1357    0.3336   -1.0800 O   0  0  0  0  0  0  0  0  0  0  0  0
    3.8038    1.4223    0.8908 N   0  0  0  0  0  0  0  0  0  0  0  0
    5.0707    0.7824    1.0946 C   0  0  0  0  0  0  0  0  0  0  0  0
    5.5297   -0.2421    0.2522 C   0  0  0  0  0  0  0  0  0  0  0  0
    6.7686   -0.8463    0.4843 C   0  0  0  0  0  0  0  0  0  0  0  0
    7.5569   -0.4309    1.5604 C   0  0  0  0  0  0  0  0  0  0  0  0
    7.1050    0.5867    2.4049 C   0  0  0  0  0  0  0  0  0  0  0  0
    5.8654    1.1899    2.1718 C   0  0  0  0  0  0  0  0  0  0  0  0
    8.7578   -1.0152    1.7855 F   0  0  0  0  0  0  0  0  0  0  0  0
  1  2  1  0
  2  3  1  0
  3  4  1  0
  4  5  1  0
  4  6  1  0
  6  7  1  0
  7  8  2  0
  7  9  1  0
  9 10  1  0
 10 11  1  0
 11 12  1  0
 12 13  1  0
 13 14  1  0
 14 15  1  0
 10 16  1  0
 16 17  2  0
 16 18  1  0
 18 19  1  0
 19 20  2  0
 19 21  1  0
 21 22  1  0
 22 23  2  0
 22 24  1  0
 24 25  1  0
 25 26  2  0
 26 27  1  0
 27 28  2  0
 28 29  1  0
 29 30  2  0
 28 31  1  0
  5  1  1  0
 15 11  1  0
 30 25  1  0
M  END
$$$$
644409_decoys
     RDKit          3D

 27 30  0  0  0  0  0  0  0  0999 V2000
    2.4363   -4.6369    0.5119 C   0  0  0  0  0  0  0  0  0  0  0  0
    2.9867   -3.4005    1.2313 C   0  0  0  0  0  0  0  0  0  0  0  0
    2.8361   -2.1302    0.3744 C   0  0  0  0  0  0  0  0  0  0  0  0
    1.6290   -2.2135   -0.5606 C   0  0  0  0  0  0  0  0  0  0  0  0
    0.5829   -3.0184    0.0631 N   0  0  0  0  0  0  0  0  0  0  0  0
    0.9886   -4.4278    0.0219 C   0  0  0  0  0  0  0  0  0  0  0  0
   -0.8657   -2.8178   -0.8663 S   0  0  0  0  0  0  0  0  0  0  0  0
   -1.9621   -3.6762   -0.2995 O   0  0  0  0  0  0  0  0  0  0  0  0
   -0.6277   -3.2112   -2.2989 O   0  0  0  0  0  0  0  0  0  0  0  0
   -1.3445   -1.1310   -0.7797 C   0  0  0  0  0  0  0  0  0  0  0  0
   -1.0173   -0.2514   -1.8168 C   0  0  0  0  0  0  0  0  0  0  0  0
   -1.3211    1.1080   -1.7047 C   0  0  0  0  0  0  0  0  0  0  0  0
   -1.9488    1.6015   -0.5509 C   0  0  0  0  0  0  0  0  0  0  0  0
   -2.2736    0.7144    0.4852 C   0  0  0  0  0  0  0  0  0  0  0  0
   -1.9686   -0.6445    0.3731 C   0  0  0  0  0  0  0  0  0  0  0  0
   -2.2390    2.9995   -0.4204 N   0  0  0  0  0  0  0  0  0  0  0  0
   -1.9784    3.9775   -1.3066 C   0  0  0  0  0  0  0  0  0  0  0  0
   -2.3993    5.1489   -0.7884 N   0  0  0  0  0  0  0  0  0  0  0  0
   -2.9061    4.8624    0.4029 N   0  0  0  0  0  0  0  0  0  0  0  0
   -2.8098    3.5631    0.6287 N   0  0  0  0  0  0  0  0  0  0  0  0
    2.7018   -0.9103    1.2284 C   0  0  0  0  0  0  0  0  0  0  0  0
    2.0315   -0.9482    2.2971 O   0  0  0  0  0  0  0  0  0  0  0  0
    3.2479    0.3255    0.7639 N   0  0  0  0  0  0  0  0  0  0  0  0
    2.9061    1.6055    1.3660 C   0  0  0  0  0  0  0  0  0  0  0  0
    1.5151    2.0250    0.9249 C   0  0  0  0  0  0  0  0  0  0  0  0
    1.1866    3.3735    1.5306 C   0  0  0  0  0  0  0  0  0  0  0  0
    0.6135    2.1129    2.1392 C   0  0  0  0  0  0  0  0  0  0  0  0
  1  2  1  0
  2  3  1  0
  3  4  1  0
  4  5  1  0
  5  6  1  0
  5  7  1  0
  7  8  2  0
  7  9  2  0
  7 10  1  0
 10 11  2  0
 11 12  1  0
 12 13  2  0
 13 14  1  0
 14 15  2  0
 13 16  1  0
 16 17  1  0
 17 18  2  0
 18 19  1  0
 19 20  2  0
  3 21  1  0
 21 22  2  0
 21 23  1  0
 23 24  1  0
 24 25  1  0
 25 26  1  0
 26 27  1  0
  6  1  1  0
 15 10  1  0
 20 16  1  0
 27 25  1  0
M  END
$$$$
644410_decoys
     RDKit          3D

 23 25  0  0  0  0  0  0  0  0999 V2000
    7.2287    2.1814    1.2994 C   0  0  0  0  0  0  0  0  0  0  0  0
    6.8610    0.9849    0.6267 O   0  0  0  0  0  0  0  0  0  0  0  0
    5.5297    0.6238    0.4019 C   0  0  0  0  0  0  0  0  0  0  0  0
    4.4643    1.4311    0.8323 C   0  0  0  0  0  0  0  0  0  0  0  0
    3.1434    1.0424    0.5923 C   0  0  0  0  0  0  0  0  0  0  0  0
    2.8706   -0.1537   -0.0785 C   0  0  0  0  0  0  0  0  0  0  0  0
    3.9357   -0.9610   -0.5090 C   0  0  0  0  0  0  0  0  0  0  0  0
    5.2566   -0.5723   -0.2690 C   0  0  0  0  0  0  0  0  0  0  0  0
    1.5398   -0.5147   -0.3033 O   0  0  0  0  0  0  0  0  0  0  0  0
    1.1712   -1.7129   -0.9767 C   0  0  0  0  0  0  0  0  0  0  0  0
   -0.3139   -1.8346   -1.0714 C   0  0  0  0  0  0  0  0  0  0  0  0
   -0.8042   -2.8438   -1.6429 O   0  0  0  0  0  0  0  0  0  0  0  0
   -1.1591   -0.8149   -0.5177 N   0  0  0  0  0  0  0  0  0  0  0  0
   -2.5953   -0.7838   -0.5260 C   0  0  0  0  0  0  0  0  0  0  0  0
   -3.3473   -1.8137   -1.1134 C   0  0  0  0  0  0  0  0  0  0  0  0
   -4.7443   -1.7686   -1.1131 C   0  0  0  0  0  0  0  0  0  0  0  0
   -5.4109   -0.6919   -0.5249 C   0  0  0  0  0  0  0  0  0  0  0  0
   -4.6792    0.3408    0.0637 C   0  0  0  0  0  0  0  0  0  0  0  0
   -3.2662    0.3001    0.0661 C   0  0  0  0  0  0  0  0  0  0  0  0
   -2.5668    1.3160    0.6448 N   0  0  0  0  0  0  0  0  0  0  0  0
   -3.1928    2.3760    1.2243 C   0  0  0  0  0  0  0  0  0  0  0  0
   -4.5880    2.4474    1.2393 C   0  0  0  0  0  0  0  0  0  0  0  0
   -5.3331    1.4221    0.6547 C   0  0  0  0  0  0  0  0  0  0  0  0
  1  2  1  0
  2  3  1  0
  3  4  2  0
  4  5  1  0
  5  6  2  0
  6  7  1  0
  7  8  2  0
  6  9  1  0
  9 10  1  0
 10 11  1  0
 11 12  2  0
 11 13  1  0
 13 14  1  0
 14 15  2  0
 15 16  1  0
 16 17  2  0
 17 18  1  0
 18 19  2  0
 19 20  1  0
 20 21  2  0
 21 22  1  0
 22 23  2  0
  8  3  1  0
 19 14  1  0
 23 18  1  0
M  END
$$$$
644411_decoys
     RDKit          3D

 24 26  0  0  0  0  0  0  0  0999 V2000
   -4.1513    1.7113   -1.6448 C   0  0  0  0  0  0  0  0  0  0  0  0
   -4.4318    0.7763   -0.5184 C   0  0  0  0  0  0  0  0  0  0  0  0
   -5.6071    0.9457    0.2207 C   0  0  0  0  0  0  0  0  0  0  0  0
   -5.9011    0.0882    1.2831 C   0  0  0  0  0  0  0  0  0  0  0  0
   -5.0192   -0.9432    1.6109 C   0  0  0  0  0  0  0  0  0  0  0  0
   -3.8441   -1.1165    0.8757 C   0  0  0  0  0  0  0  0  0  0  0  0
   -3.5376   -0.2614   -0.1949 C   0  0  0  0  0  0  0  0  0  0  0  0
   -2.3325   -0.4244   -0.9605 N   0  0  0  0  0  0  0  0  0  0  0  0
   -1.3200   -1.4209   -0.7717 C   0  0  0  0  0  0  0  0  0  0  0  0
   -1.4267   -2.2961    0.1302 O   0  0  0  0  0  0  0  0  0  0  0  0
   -0.1210   -1.4095   -1.6680 C   0  0  0  0  0  0  0  0  0  0  0  0
   -0.0532   -2.6942   -2.4764 C   0  0  0  0  0  0  0  0  0  0  0  0
    1.0718   -3.5263   -1.8724 C   0  0  0  0  0  0  0  0  0  0  0  0
    1.8923   -2.5840   -1.0109 C   0  0  0  0  0  0  0  0  0  0  0  0
    1.1020   -1.3764   -0.8867 N   0  0  0  0  0  0  0  0  0  0  0  0
    1.5577   -0.2198   -0.1742 C   0  0  0  0  0  0  0  0  0  0  0  0
    0.8655    0.8347   -0.1750 O   0  0  0  0  0  0  0  0  0  0  0  0
    2.7955   -0.2642    0.5422 N   0  0  0  0  0  0  0  0  0  0  0  0
    3.3304    0.8817    1.2630 C   0  0  0  0  0  0  0  0  0  0  0  0
    3.8518    1.9293    0.2657 C   0  0  0  0  0  0  0  0  0  0  0  0
    4.9302    2.8037    0.8982 C   0  0  0  0  0  0  0  0  0  0  0  0
    6.1477    1.9706    1.3222 C   0  0  0  0  0  0  0  0  0  0  0  0
    5.8037    0.5182    1.6794 C   0  0  0  0  0  0  0  0  0  0  0  0
    4.3968    0.4093    2.2627 C   0  0  0  0  0  0  0  0  0  0  0  0
  1  2  1  0
  2  3  2  0
  3  4  1  0
  4  5  2  0
  5  6  1  0
  6  7  2  0
  7  8  1  0
  8  9  1  0
  9 10  2  0
  9 11  1  0
 11 12  1  0
 12 13  1  0
 13 14  1  0
 14 15  1  0
 15 16  1  0
 16 17  2  0
 16 18  1  0
 18 19  1  0
 19 20  1  0
 20 21  1  0
 21 22  1  0
 22 23  1  0
 23 24  1  0
  7  2  1  0
 15 11  1  0
 24 19  1  0
M  END
$$$$
644412_decoys
     RDKit          3D

 28 31  0  0  0  0  0  0  0  0999 V2000
   -2.4377   -2.3571    1.9855 C   0  0  0  0  0  0  0  0  0  0  0  0
   -1.7971   -1.6001    0.9680 O   0  0  0  0  0  0  0  0  0  0  0  0
   -1.3182   -2.1724   -0.2161 C   0  0  0  0  0  0  0  0  0  0  0  0
   -1.4553   -3.5483   -0.4642 C   0  0  0  0  0  0  0  0  0  0  0  0
   -0.9457   -4.1107   -1.6367 C   0  0  0  0  0  0  0  0  0  0  0  0
   -0.2901   -3.3052   -2.5696 C   0  0  0  0  0  0  0  0  0  0  0  0
   -0.1504   -1.9358   -2.3341 C   0  0  0  0  0  0  0  0  0  0  0  0
   -0.6727   -1.3603   -1.1686 C   0  0  0  0  0  0  0  0  0  0  0  0
   -0.4967    0.0445   -0.9381 N   0  0  0  0  0  0  0  0  0  0  0  0
    0.8577    0.5303   -0.6412 C   0  0  0  0  0  0  0  0  0  0  0  0
    0.9961    1.9609   -0.9197 N   0  0  0  0  0  0  0  0  0  0  0  0
   -0.1012    2.8696   -0.8064 C   0  0  0  0  0  0  0  0  0  0  0  0
    0.1337    4.2473   -0.7730 C   0  0  0  0  0  0  0  0  0  0  0  0
   -0.9388    5.1371   -0.6609 C   0  0  0  0  0  0  0  0  0  0  0  0
   -2.2477    4.6506   -0.5894 C   0  0  0  0  0  0  0  0  0  0  0  0
   -2.4859    3.2738   -0.6366 C   0  0  0  0  0  0  0  0  0  0  0  0
   -1.4128    2.3789   -0.7459 C   0  0  0  0  0  0  0  0  0  0  0  0
   -1.6320    0.9289   -0.8546 C   0  0  0  0  0  0  0  0  0  0  0  0
   -2.8060    0.4702   -0.9139 O   0  0  0  0  0  0  0  0  0  0  0  0
    1.2216    0.2300    0.7808 C   0  0  0  0  0  0  0  0  0  0  0  0
    2.1981   -0.7345    1.0447 C   0  0  0  0  0  0  0  0  0  0  0  0
    2.5335   -1.0679    2.3672 C   0  0  0  0  0  0  0  0  0  0  0  0
    1.8743   -0.4260    3.4257 C   0  0  0  0  0  0  0  0  0  0  0  0
    0.8921    0.5335    3.1636 C   0  0  0  0  0  0  0  0  0  0  0  0
    0.5635    0.8591    1.8461 C   0  0  0  0  0  0  0  0  0  0  0  0
    2.1908   -0.7401    4.7414 O   0  0  0  0  0  0  0  0  0  0  0  0
    3.5098   -2.0292    2.6494 O   0  0  0  0  0  0  0  0  0  0  0  0
    4.2171   -2.7273    1.6336 C   0  0  0  0  0  0  0  0  0  0  0  0
  1  2  1  0
  2  3  1  0
  3  4  2  0
  4  5  1  0
  5  6  2  0
  6  7  1  0
  7  8  2  0
  8  9  1  0
  9 10  1  0
 10 11  1  0
 11 12  1  0
 12 13  2  0
 13 14  1  0
 14 15  2  0
 15 16  1  0
 16 17  2  0
 17 18  1  0
 18 19  2  0
 10 20  1  0
 20 21  2  0
 21 22  1  0
 22 23  2  0
 23 24  1  0
 24 25  2  0
 23 26  1  0
 22 27  1  0
 27 28  1  0
  8  3  1  0
 18  9  1  0
 17 12  1  0
 25 20  1  0
M  END
$$$$
644416_decoys
     RDKit          3D

 33 36  0  0  0  0  0  0  0  0999 V2000
   -7.4008   -1.6577   -2.3005 C   0  0  0  0  0  0  0  0  0  0  0  0
   -6.3135   -0.7425   -1.8666 C   0  0  0  0  0  0  0  0  0  0  0  0
   -5.0980   -1.2655   -1.4167 C   0  0  0  0  0  0  0  0  0  0  0  0
   -4.0755   -0.4044   -1.0087 C   0  0  0  0  0  0  0  0  0  0  0  0
   -4.2633    0.9859   -1.0522 C   0  0  0  0  0  0  0  0  0  0  0  0
   -5.4847    1.5031   -1.4982 C   0  0  0  0  0  0  0  0  0  0  0  0
   -6.5074    0.6413   -1.9062 C   0  0  0  0  0  0  0  0  0  0  0  0
   -3.1913    1.9345   -0.6051 C   0  0  0  0  0  0  0  0  0  0  0  0
   -3.0733    1.9871    0.9314 C   0  0  0  0  0  0  0  0  0  0  0  0
   -2.3726    0.7428    1.5180 C   0  0  0  0  0  0  0  0  0  0  0  0
   -1.1674    0.4272    0.7432 N   0  0  0  0  0  0  0  0  0  0  0  0
   -0.9747    0.8036   -0.5266 C   0  0  0  0  0  0  0  0  0  0  0  0
    0.1987    0.2714   -0.9989 C   0  0  0  0  0  0  0  0  0  0  0  0
    0.6767   -0.4743    0.0761 C   0  0  0  0  0  0  0  0  0  0  0  0
   -0.1807   -0.3723    1.1191 N   0  0  0  0  0  0  0  0  0  0  0  0
    1.9078   -1.2777    0.1249 C   0  0  0  0  0  0  0  0  0  0  0  0
    2.2123   -1.8801    1.1895 O   0  0  0  0  0  0  0  0  0  0  0  0
    2.7536   -1.3802   -1.0234 N   0  0  0  0  0  0  0  0  0  0  0  0
    4.0251   -2.0896   -1.0100 C   0  0  0  0  0  0  0  0  0  0  0  0
    5.0570   -1.2895   -0.2817 C   0  0  0  0  0  0  0  0  0  0  0  0
    5.6126   -0.0838   -0.6561 C   0  0  0  0  0  0  0  0  0  0  0  0
    6.4837    0.2963    0.2982 N   0  0  0  0  0  0  0  0  0  0  0  0
    6.5147   -0.6044    1.2682 N   0  0  0  0  0  0  0  0  0  0  0  0
    5.6485   -1.5819    0.9334 C   0  0  0  0  0  0  0  0  0  0  0  0
    5.3924   -2.7848    1.7719 C   0  0  0  0  0  0  0  0  0  0  0  0
    7.2851    1.5083    0.3012 C   0  0  0  0  0  0  0  0  0  0  0  0
    5.3074    0.6869   -1.8971 C   0  0  0  0  0  0  0  0  0  0  0  0
    0.8796    0.4772   -2.6041 Cl  0  0  0  0  0  0  0  0  0  0  0  0
   -1.9063    1.6193   -1.2328 N   0  0  0  0  0  0  0  0  0  0  0  0
   -2.0563    0.9548    3.0016 C   0  0  0  0  0  0  0  0  0  0  0  0
   -1.1101    1.9536    3.1523 F   0  0  0  0  0  0  0  0  0  0  0  0
   -1.5721   -0.2182    3.5510 F   0  0  0  0  0  0  0  0  0  0  0  0
   -3.2071    1.3134    3.6809 F   0  0  0  0  0  0  0  0  0  0  0  0
  1  2  1  0
  2  3  2  0
  3  4  1  0
  4  5  2  0
  5  6  1  0
  6  7  2  0
  5  8  1  0
  8  9  1  0
  9 10  1  0
 10 11  1  0
 11 12  1  0
 12 13  2  0
 13 14  1  0
 14 15  2  0
 14 16  1  0
 16 17  2  0
 16 18  1  0
 18 19  1  0
 19 20  1  0
 20 21  2  0
 21 22  1  0
 22 23  1  0
 23 24  2  0
 24 25  1  0
 22 26  1  0
 21 27  1  0
 13 28  1  0
 12 29  1  0
 10 30  1  0
 30 31  1  0
 30 32  1  0
 30 33  1  0
  7  2  1  0
 29  8  1  0
 15 11  1  0
 24 20  1  0
M  END
$$$$
644417_decoys
     RDKit          3D

 27 29  0  0  0  0  0  0  0  0999 V2000
    5.0576   -1.3089   -2.7527 C   0  0  0  0  0  0  0  0  0  0  0  0
    5.7902   -0.6082   -1.6237 C   0  0  0  0  0  0  0  0  0  0  0  0
    5.0585    0.5366   -1.1987 O   0  0  0  0  0  0  0  0  0  0  0  0
    3.9326    0.4641   -0.3709 C   0  0  0  0  0  0  0  0  0  0  0  0
    3.4654   -0.7599    0.1336 C   0  0  0  0  0  0  0  0  0  0  0  0
    2.3396   -0.7974    0.9606 C   0  0  0  0  0  0  0  0  0  0  0  0
    1.6699    0.3830    1.2974 C   0  0  0  0  0  0  0  0  0  0  0  0
    2.1343    1.6051    0.7890 C   0  0  0  0  0  0  0  0  0  0  0  0
    3.2598    1.6440   -0.0385 C   0  0  0  0  0  0  0  0  0  0  0  0
    0.5092    0.3022    2.1340 N   0  0  0  0  0  0  0  0  0  0  0  0
   -0.2746    1.3992    2.6189 C   0  0  0  0  0  0  0  0  0  0  0  0
    0.0918    2.5920    2.4479 O   0  0  0  0  0  0  0  0  0  0  0  0
   -1.5629    1.1176    3.3103 C   0  0  0  0  0  0  0  0  0  0  0  0
   -2.9724    1.3935    2.1884 S   0  0  0  0  0  0  0  0  0  0  0  0
   -2.6368   -0.0717    1.2088 C   0  0  0  0  0  0  0  0  0  0  0  0
   -3.0744   -1.3111    1.5648 N   0  0  0  0  0  0  0  0  0  0  0  0
   -2.6045   -2.0869    0.5692 C   0  0  0  0  0  0  0  0  0  0  0  0
   -1.9226   -1.3367   -0.3352 C   0  0  0  0  0  0  0  0  0  0  0  0
   -1.9259   -0.0581    0.0517 N   0  0  0  0  0  0  0  0  0  0  0  0
   -1.3592    1.0854   -0.6496 C   0  0  0  0  0  0  0  0  0  0  0  0
   -2.4224    1.7476   -1.5047 C   0  0  0  0  0  0  0  0  0  0  0  0
   -1.8737    2.8510   -2.1566 O   0  0  0  0  0  0  0  0  0  0  0  0
   -2.9178    3.7719   -2.2242 C   0  0  0  0  0  0  0  0  0  0  0  0
   -1.3565   -1.8621   -1.4502 N   0  0  0  0  0  0  0  0  0  0  0  0
   -1.4749   -3.2074   -1.6681 C   0  0  0  0  0  0  0  0  0  0  0  0
   -2.1733   -4.0267   -0.7499 C   0  0  0  0  0  0  0  0  0  0  0  0
   -2.7570   -3.4582    0.3981 C   0  0  0  0  0  0  0  0  0  0  0  0
  1  2  1  0
  2  3  1  0
  3  4  1  0
  4  5  2  0
  5  6  1  0
  6  7  2  0
  7  8  1  0
  8  9  2  0
  7 10  1  0
 10 11  1  0
 11 12  2  0
 11 13  1  0
 13 14  1  0
 14 15  1  0
 15 16  2  0
 16 17  1  0
 17 18  2  0
 18 19  1  0
 19 20  1  0
 20 21  1  0
 21 22  1  0
 22 23  1  0
 18 24  1  0
 24 25  2  0
 25 26  1  0
 26 27  2  0
  9  4  1  0
 19 15  1  0
 27 17  1  0
M  END
$$$$
644418_decoys
     RDKit          3D

 27 29  0  0  0  0  0  0  0  0999 V2000
    8.3417   -2.1852   -1.7867 C   0  0  0  0  0  0  0  0  0  0  0  0
    7.0094   -1.7029   -1.8948 O   0  0  0  0  0  0  0  0  0  0  0  0
    6.2369   -1.3626   -0.7810 C   0  0  0  0  0  0  0  0  0  0  0  0
    6.7369   -1.4784    0.5258 C   0  0  0  0  0  0  0  0  0  0  0  0
    5.9390   -1.1299    1.6181 C   0  0  0  0  0  0  0  0  0  0  0  0
    4.6381   -0.6641    1.4122 C   0  0  0  0  0  0  0  0  0  0  0  0
    4.1253   -0.5432    0.1131 C   0  0  0  0  0  0  0  0  0  0  0  0
    4.9334   -0.8954   -0.9783 C   0  0  0  0  0  0  0  0  0  0  0  0
    2.7529   -0.0518   -0.1029 C   0  0  0  0  0  0  0  0  0  0  0  0
    2.3037    0.0522   -1.2768 O   0  0  0  0  0  0  0  0  0  0  0  0
    1.9391    0.3041    1.0254 N   0  0  0  0  0  0  0  0  0  0  0  0
    0.5924    0.7962    0.9945 C   0  0  0  0  0  0  0  0  0  0  0  0
   -0.0446    1.0892    2.2053 C   0  0  0  0  0  0  0  0  0  0  0  0
   -1.3571    1.5700    2.2163 C   0  0  0  0  0  0  0  0  0  0  0  0
   -2.0438    1.7617    1.0130 C   0  0  0  0  0  0  0  0  0  0  0  0
   -1.4126    1.4722   -0.2006 C   0  0  0  0  0  0  0  0  0  0  0  0
   -0.1006    0.9914   -0.2100 C   0  0  0  0  0  0  0  0  0  0  0  0
   -3.6940    2.3616    1.0179 S   0  0  0  0  0  0  0  0  0  0  0  0
   -3.7071    3.7733    0.5040 O   0  0  0  0  0  0  0  0  0  0  0  0
   -4.2416    2.3450    2.4186 O   0  0  0  0  0  0  0  0  0  0  0  0
   -4.6867    1.3711    0.0023 N   0  0  0  0  0  0  0  0  0  0  0  0
   -4.6800    0.0262    0.5538 C   0  0  0  0  0  0  0  0  0  0  0  0
   -5.3784   -0.8987   -0.3779 C   0  0  0  0  0  0  0  0  0  0  0  0
   -4.7615   -1.6729   -1.3346 C   0  0  0  0  0  0  0  0  0  0  0  0
   -5.7973   -2.3413   -1.9643 C   0  0  0  0  0  0  0  0  0  0  0  0
   -6.9683   -1.9258   -1.3521 C   0  0  0  0  0  0  0  0  0  0  0  0
   -6.6753   -1.0617   -0.4106 O   0  0  0  0  0  0  0  0  0  0  0  0
  1  2  1  0
  2  3  1  0
  3  4  2  0
  4  5  1  0
  5  6  2  0
  6  7  1  0
  7  8  2  0
  7  9  1  0
  9 10  2  0
  9 11  1  0
 11 12  1  0
 12 13  2  0
 13 14  1  0
 14 15  2  0
 15 16  1  0
 16 17  2  0
 15 18  1  0
 18 19  2  0
 18 20  2  0
 18 21  1  0
 21 22  1  0
 22 23  1  0
 23 24  2  0
 24 25  1  0
 25 26  2  0
 26 27  1  0
  8  3  1  0
 17 12  1  0
 27 23  1  0
M  END
$$$$
644419_decoys
     RDKit          3D

 26 29  0  0  0  0  0  0  0  0999 V2000
   -4.9110    0.2962    1.2738 C   0  0  0  0  0  0  0  0  0  0  0  0
   -5.5126   -0.9569    1.4120 C   0  0  0  0  0  0  0  0  0  0  0  0
   -5.2590   -1.9630    0.4762 C   0  0  0  0  0  0  0  0  0  0  0  0
   -4.4012   -1.7207   -0.6068 C   0  0  0  0  0  0  0  0  0  0  0  0
   -3.7942   -0.4539   -0.7492 C   0  0  0  0  0  0  0  0  0  0  0  0
   -4.0550    0.5477    0.1985 C   0  0  0  0  0  0  0  0  0  0  0  0
   -2.9370   -0.2325   -1.8391 C   0  0  0  0  0  0  0  0  0  0  0  0
   -2.7101   -1.2424   -2.7202 N   0  0  0  0  0  0  0  0  0  0  0  0
   -3.2860   -2.4382   -2.5853 N   0  0  0  0  0  0  0  0  0  0  0  0
   -4.1267   -2.7140   -1.5554 C   0  0  0  0  0  0  0  0  0  0  0  0
   -4.6472   -3.8585   -1.4665 O   0  0  0  0  0  0  0  0  0  0  0  0
   -2.2304    1.0727   -2.0364 C   0  0  0  0  0  0  0  0  0  0  0  0
   -1.0354    1.1303   -1.2059 N   0  0  0  0  0  0  0  0  0  0  0  0
    0.1664    0.4289   -1.5298 C   0  0  0  0  0  0  0  0  0  0  0  0
    0.2634   -0.2172   -2.6067 O   0  0  0  0  0  0  0  0  0  0  0  0
    1.3283    0.4961   -0.6052 C   0  0  0  0  0  0  0  0  0  0  0  0
    2.3360    1.9568   -0.9889 S   0  0  0  0  0  0  0  0  0  0  0  0
    3.4919    1.5880    0.3223 C   0  0  0  0  0  0  0  0  0  0  0  0
    3.3509    2.0616    1.5883 N   0  0  0  0  0  0  0  0  0  0  0  0
    4.4240    1.5327    2.1993 C   0  0  0  0  0  0  0  0  0  0  0  0
    4.8054    1.6762    3.5310 C   0  0  0  0  0  0  0  0  0  0  0  0
    5.9812    1.0184    3.9406 C   0  0  0  0  0  0  0  0  0  0  0  0
    6.7315    0.2482    3.0224 C   0  0  0  0  0  0  0  0  0  0  0  0
    6.3159    0.1248    1.6830 C   0  0  0  0  0  0  0  0  0  0  0  0
    5.1489    0.7890    1.3169 C   0  0  0  0  0  0  0  0  0  0  0  0
    4.5620    0.8295    0.1524 O   0  0  0  0  0  0  0  0  0  0  0  0
  1  2  2  0
  2  3  1  0
  3  4  2  0
  4  5  1  0
  5  6  2  0
  5  7  1  0
  7  8  2  0
  8  9  1  0
  9 10  1  0
 10 11  2  0
  7 12  1  0
 12 13  1  0
 13 14  1  0
 14 15  2  0
 14 16  1  0
 16 17  1  0
 17 18  1  0
 18 19  2  0
 19 20  1  0
 20 21  2  0
 21 22  1  0
 22 23  2  0
 23 24  1  0
 24 25  2  0
 25 26  1  0
  6  1  1  0
 10  4  1  0
 26 18  1  0
 25 20  1  0
M  END
$$$$
644420_decoys
     RDKit          3D

 20 22  0  0  0  0  0  0  0  0999 V2000
   -1.4973    2.0807    0.4177 C   0  0  0  0  0  0  0  0  0  0  0  0
   -2.7277    1.9178   -0.4835 C   0  0  0  0  0  0  0  0  0  0  0  0
   -3.7854    0.9586    0.0871 C   0  0  0  0  0  0  0  0  0  0  0  0
   -3.1716   -0.1145    0.9889 C   0  0  0  0  0  0  0  0  0  0  0  0
   -2.4169    0.5172    2.1737 C   0  0  0  0  0  0  0  0  0  0  0  0
   -1.8685    1.9219    1.8878 C   0  0  0  0  0  0  0  0  0  0  0  0
   -2.2915   -0.9318    0.2250 O   0  0  0  0  0  0  0  0  0  0  0  0
   -1.8037   -2.1558    0.6877 C   0  0  0  0  0  0  0  0  0  0  0  0
   -2.2285   -2.6593    1.7620 O   0  0  0  0  0  0  0  0  0  0  0  0
   -0.7427   -2.8561   -0.0867 C   0  0  0  0  0  0  0  0  0  0  0  0
    0.4792   -2.0701   -0.0585 N   0  0  0  0  0  0  0  0  0  0  0  0
    0.6824   -0.9859   -0.7861 N   0  0  0  0  0  0  0  0  0  0  0  0
    1.8875   -0.5505   -0.3724 C   0  0  0  0  0  0  0  0  0  0  0  0
    2.3977   -1.3473    0.5895 N   0  0  0  0  0  0  0  0  0  0  0  0
    1.4860   -2.2897    0.7684 N   0  0  0  0  0  0  0  0  0  0  0  0
    2.5460    0.6546   -0.8827 C   0  0  0  0  0  0  0  0  0  0  0  0
    3.7822    1.1327   -0.4796 C   0  0  0  0  0  0  0  0  0  0  0  0
    4.1467    2.3143   -1.1414 C   0  0  0  0  0  0  0  0  0  0  0  0
    3.2068    2.7729   -2.0623 C   0  0  0  0  0  0  0  0  0  0  0  0
    1.9191    1.6903   -2.0417 S   0  0  0  0  0  0  0  0  0  0  0  0
  1  2  1  0
  2  3  1  0
  3  4  1  0
  4  5  1  0
  5  6  1  0
  4  7  1  0
  7  8  1  0
  8  9  2  0
  8 10  1  0
 10 11  1  0
 11 12  1  0
 12 13  2  0
 13 14  1  0
 14 15  2  0
 13 16  1  0
 16 17  2  0
 17 18  1  0
 18 19  2  0
 19 20  1  0
  6  1  1  0
 15 11  1  0
 20 16  1  0
M  END
$$$$
644422_decoys
     RDKit          3D

 25 28  0  0  0  0  0  0  0  0999 V2000
   -5.3308    0.4607   -1.0450 C   0  0  0  0  0  0  0  0  0  0  0  0
   -4.2841   -0.4447   -1.6745 C   0  0  0  0  0  0  0  0  0  0  0  0
   -3.2262   -0.7926   -0.6332 C   0  0  0  0  0  0  0  0  0  0  0  0
   -2.6618    0.4315    0.0447 C   0  0  0  0  0  0  0  0  0  0  0  0
   -3.4249    1.6213    0.1179 C   0  0  0  0  0  0  0  0  0  0  0  0
   -4.6935    1.7948   -0.6702 C   0  0  0  0  0  0  0  0  0  0  0  0
   -2.9546    2.7065    0.8612 C   0  0  0  0  0  0  0  0  0  0  0  0
   -1.7519    2.6140    1.5611 C   0  0  0  0  0  0  0  0  0  0  0  0
   -1.0007    1.4404    1.5051 C   0  0  0  0  0  0  0  0  0  0  0  0
   -1.4374    0.3500    0.7430 C   0  0  0  0  0  0  0  0  0  0  0  0
   -0.6329   -0.8357    0.7097 N   0  0  0  0  0  0  0  0  0  0  0  0
   -0.0748   -1.4466   -0.3507 C   0  0  0  0  0  0  0  0  0  0  0  0
    0.7087   -2.4598    0.0604 N   0  0  0  0  0  0  0  0  0  0  0  0
    0.6218   -2.4458    1.3845 N   0  0  0  0  0  0  0  0  0  0  0  0
   -0.1735   -1.4615    1.7783 N   0  0  0  0  0  0  0  0  0  0  0  0
   -0.2190   -0.9228   -2.0618 S   0  0  0  0  0  0  0  0  0  0  0  0
    1.0530    0.3713   -1.9007 C   0  0  0  0  0  0  0  0  0  0  0  0
    2.4216   -0.2287   -1.8375 C   0  0  0  0  0  0  0  0  0  0  0  0
    2.8894   -0.7922   -2.8636 O   0  0  0  0  0  0  0  0  0  0  0  0
    3.1988   -0.1645   -0.6320 N   0  0  0  0  0  0  0  0  0  0  0  0
    4.4386   -0.9360   -0.5279 C   0  0  0  0  0  0  0  0  0  0  0  0
    5.3817   -0.2634    0.4693 C   0  0  0  0  0  0  0  0  0  0  0  0
    4.7135   -0.0466    1.6862 O   0  0  0  0  0  0  0  0  0  0  0  0
    3.7890    0.9842    1.4475 C   0  0  0  0  0  0  0  0  0  0  0  0
    2.6498    0.4661    0.5708 C   0  0  0  0  0  0  0  0  0  0  0  0
  1  2  1  0
  2  3  1  0
  3  4  1  0
  4  5  2  0
  5  6  1  0
  5  7  1  0
  7  8  2  0
  8  9  1  0
  9 10  2  0
 10 11  1  0
 11 12  1  0
 12 13  2  0
 13 14  1  0
 14 15  2  0
 12 16  1  0
 16 17  1  0
 17 18  1  0
 18 19  2  0
 18 20  1  0
 20 21  1  0
 21 22  1  0
 22 23  1  0
 23 24  1  0
 24 25  1  0
  6  1  1  0
 10  4  1  0
 15 11  1  0
 25 20  1  0
M  END
$$$$
644423_decoys
     RDKit          3D

 22 23  0  0  0  0  0  0  0  0999 V2000
   -0.4423   -2.9080    1.9017 C   0  0  0  0  0  0  0  0  0  0  0  0
   -0.8994   -1.7748    1.0045 C   0  0  0  0  0  0  0  0  0  0  0  0
   -0.0878   -0.5499    1.2754 C   0  0  0  0  0  0  0  0  0  0  0  0
   -0.2196    0.0699    2.3661 O   0  0  0  0  0  0  0  0  0  0  0  0
    0.8408   -0.0947    0.2899 N   0  0  0  0  0  0  0  0  0  0  0  0
    1.6903    1.0719    0.4878 C   0  0  0  0  0  0  0  0  0  0  0  0
    2.8032    0.7635    1.4806 C   0  0  0  0  0  0  0  0  0  0  0  0
    3.8002   -0.2334    0.9031 C   0  0  0  0  0  0  0  0  0  0  0  0
    4.5915    0.3826   -0.1505 N   0  0  0  0  0  0  0  0  0  0  0  0
    4.3695    0.2823   -1.4696 C   0  0  0  0  0  0  0  0  0  0  0  0
    5.3388    1.0390   -2.0997 C   0  0  0  0  0  0  0  0  0  0  0  0
    6.1402    1.5973   -1.1668 N   0  0  0  0  0  0  0  0  0  0  0  0
    5.6573    1.1799    0.0189 C   0  0  0  0  0  0  0  0  0  0  0  0
   -2.2809   -1.5166    1.2277 O   0  0  0  0  0  0  0  0  0  0  0  0
   -3.0975   -0.7477    0.3848 C   0  0  0  0  0  0  0  0  0  0  0  0
   -2.8810   -0.6007   -1.0095 C   0  0  0  0  0  0  0  0  0  0  0  0
   -3.7461    0.2007   -1.7622 C   0  0  0  0  0  0  0  0  0  0  0  0
   -4.8204    0.8522   -1.1552 C   0  0  0  0  0  0  0  0  0  0  0  0
   -5.0502    0.6916    0.2107 C   0  0  0  0  0  0  0  0  0  0  0  0
   -4.1944   -0.1061    0.9722 C   0  0  0  0  0  0  0  0  0  0  0  0
   -5.8909    1.8528   -2.1118 Cl  0  0  0  0  0  0  0  0  0  0  0  0
   -1.6213   -1.4518   -1.8911 Cl  0  0  0  0  0  0  0  0  0  0  0  0
  1  2  1  0
  2  3  1  0
  3  4  2  0
  3  5  1  0
  5  6  1  0
  6  7  1  0
  7  8  1  0
  8  9  1  0
  9 10  1  0
 10 11  2  0
 11 12  1  0
 12 13  2  0
  2 14  1  0
 14 15  1  0
 15 16  2  0
 16 17  1  0
 17 18  2  0
 18 19  1  0
 19 20  2  0
 18 21  1  0
 16 22  1  0
 13  9  1  0
 20 15  1  0
M  END
$$$$
644424_decoys
     RDKit          3D

 29 32  0  0  0  0  0  0  0  0999 V2000
   -8.0019   -1.0462    1.1689 C   0  0  0  0  0  0  0  0  0  0  0  0
   -6.5795   -1.0552    0.7389 C   0  0  0  0  0  0  0  0  0  0  0  0
   -6.2396   -1.4978   -0.5433 C   0  0  0  0  0  0  0  0  0  0  0  0
   -4.9013   -1.5062   -0.9481 C   0  0  0  0  0  0  0  0  0  0  0  0
   -3.9012   -1.0764   -0.0689 C   0  0  0  0  0  0  0  0  0  0  0  0
   -4.2431   -0.6267    1.2111 C   0  0  0  0  0  0  0  0  0  0  0  0
   -5.5815   -0.6182    1.6155 C   0  0  0  0  0  0  0  0  0  0  0  0
   -2.4774   -1.0603   -0.5084 C   0  0  0  0  0  0  0  0  0  0  0  0
   -2.1750    0.1914   -1.1871 N   0  0  0  0  0  0  0  0  0  0  0  0
   -1.7628    1.3513   -0.6526 C   0  0  0  0  0  0  0  0  0  0  0  0
   -1.6465    2.2846   -1.6149 N   0  0  0  0  0  0  0  0  0  0  0  0
   -2.0074    1.6694   -2.7348 N   0  0  0  0  0  0  0  0  0  0  0  0
   -2.3311    0.4095   -2.4792 N   0  0  0  0  0  0  0  0  0  0  0  0
   -1.4441    1.5786    0.8005 C   0  0  0  0  0  0  0  0  0  0  0  0
   -0.0162    1.4487    1.1131 N   0  0  0  0  0  0  0  0  0  0  0  0
    0.7513    2.4948    0.4168 C   0  0  0  0  0  0  0  0  0  0  0  0
    2.2324    2.1360    0.3371 C   0  0  0  0  0  0  0  0  0  0  0  0
    2.4490    0.8581   -0.4905 C   0  0  0  0  0  0  0  0  0  0  0  0
    1.2266   -0.0724   -0.4479 C   0  0  0  0  0  0  0  0  0  0  0  0
    0.4439    0.0682    0.8623 C   0  0  0  0  0  0  0  0  0  0  0  0
    3.6613    0.1133    0.0256 C   0  0  0  0  0  0  0  0  0  0  0  0
    4.6414   -0.3666   -0.8586 C   0  0  0  0  0  0  0  0  0  0  0  0
    5.7395   -1.0859   -0.3802 C   0  0  0  0  0  0  0  0  0  0  0  0
    5.8714   -1.3463    0.9925 C   0  0  0  0  0  0  0  0  0  0  0  0
    4.8916   -0.8839    1.8752 C   0  0  0  0  0  0  0  0  0  0  0  0
    3.7934   -0.1645    1.3971 C   0  0  0  0  0  0  0  0  0  0  0  0
    6.9589   -2.0608    1.5024 O   0  0  0  0  0  0  0  0  0  0  0  0
    7.9989   -2.5683    0.6776 C   0  0  0  0  0  0  0  0  0  0  0  0
    2.6491    1.2396   -1.8203 O   0  0  0  0  0  0  0  0  0  0  0  0
  1  2  1  0
  2  3  2  0
  3  4  1  0
  4  5  2  0
  5  6  1  0
  6  7  2  0
  5  8  1  0
  8  9  1  0
  9 10  1  0
 10 11  2  0
 11 12  1  0
 12 13  2  0
 10 14  1  0
 14 15  1  0
 15 16  1  0
 16 17  1  0
 17 18  1  0
 18 19  1  0
 19 20  1  0
 18 21  1  0
 21 22  2  0
 22 23  1  0
 23 24  2  0
 24 25  1  0
 25 26  2  0
 24 27  1  0
 27 28  1  0
 18 29  1  0
  7  2  1  0
 13  9  1  0
 20 15  1  0
 26 21  1  0
M  END
$$$$
644426_decoys
     RDKit          3D

 22 23  0  0  0  0  0  0  0  0999 V2000
    7.8563   -1.1483    1.5522 C   0  0  0  0  0  0  0  0  0  0  0  0
    6.4628   -1.1451    1.5894 O   0  0  0  0  0  0  0  0  0  0  0  0
    6.1219    0.1862    1.8314 C   0  0  0  0  0  0  0  0  0  0  0  0
    4.6127    0.3424    1.8390 C   0  0  0  0  0  0  0  0  0  0  0  0
    4.0608    0.1737    0.4339 C   0  0  0  0  0  0  0  0  0  0  0  0
    2.6106    0.2913    0.4499 N   0  0  0  0  0  0  0  0  0  0  0  0
    1.7577   -0.7390    0.9573 C   0  0  0  0  0  0  0  0  0  0  0  0
    2.2494   -1.8156    1.3916 O   0  0  0  0  0  0  0  0  0  0  0  0
    0.3045   -0.5456    0.9693 C   0  0  0  0  0  0  0  0  0  0  0  0
   -0.3738    0.5739    0.5257 C   0  0  0  0  0  0  0  0  0  0  0  0
   -1.6700    0.2871    0.7375 N   0  0  0  0  0  0  0  0  0  0  0  0
   -1.7799   -0.9219    1.2610 N   0  0  0  0  0  0  0  0  0  0  0  0
   -0.5807   -1.4576    1.4187 N   0  0  0  0  0  0  0  0  0  0  0  0
   -2.7987    1.1376    0.3960 C   0  0  0  0  0  0  0  0  0  0  0  0
   -3.2946    0.8131   -0.9796 C   0  0  0  0  0  0  0  0  0  0  0  0
   -4.2243   -0.2252   -1.1566 C   0  0  0  0  0  0  0  0  0  0  0  0
   -4.6748   -0.5526   -2.4383 C   0  0  0  0  0  0  0  0  0  0  0  0
   -4.2009    0.1482   -3.5490 C   0  0  0  0  0  0  0  0  0  0  0  0
   -3.2741    1.1790   -3.3807 C   0  0  0  0  0  0  0  0  0  0  0  0
   -2.8162    1.5149   -2.1031 C   0  0  0  0  0  0  0  0  0  0  0  0
   -1.6528    2.8229   -1.9477 Cl  0  0  0  0  0  0  0  0  0  0  0  0
   -4.6962   -0.9194   -0.0910 F   0  0  0  0  0  0  0  0  0  0  0  0
  1  2  1  0
  2  3  1  0
  3  4  1  0
  4  5  1  0
  5  6  1  0
  6  7  1  0
  7  8  2  0
  7  9  1  0
  9 10  2  0
 10 11  1  0
 11 12  1  0
 12 13  2  0
 11 14  1  0
 14 15  1  0
 15 16  2  0
 16 17  1  0
 17 18  2  0
 18 19  1  0
 19 20  2  0
 20 21  1  0
 16 22  1  0
 13  9  1  0
 20 15  1  0
M  END
$$$$
644427_decoys
     RDKit          3D

 22 23  0  0  0  0  0  0  0  0999 V2000
   -5.0481    0.9283    2.5758 C   0  0  0  0  0  0  0  0  0  0  0  0
   -4.2215    1.7950    1.6447 C   0  0  0  0  0  0  0  0  0  0  0  0
   -4.2332    1.2277    0.2328 C   0  0  0  0  0  0  0  0  0  0  0  0
   -3.3239    0.0419    0.1165 C   0  0  0  0  0  0  0  0  0  0  0  0
   -3.8661   -1.2388    0.2326 C   0  0  0  0  0  0  0  0  0  0  0  0
   -3.0229   -2.3481    0.1385 C   0  0  0  0  0  0  0  0  0  0  0  0
   -3.5029   -3.5064    0.2407 O   0  0  0  0  0  0  0  0  0  0  0  0
   -1.7170   -2.1890   -0.0576 O   0  0  0  0  0  0  0  0  0  0  0  0
   -1.1537   -0.9900   -0.1725 C   0  0  0  0  0  0  0  0  0  0  0  0
    0.2240   -0.8874   -0.3768 C   0  0  0  0  0  0  0  0  0  0  0  0
    0.8360    0.3706   -0.5007 C   0  0  0  0  0  0  0  0  0  0  0  0
    0.0500    1.5308   -0.4176 C   0  0  0  0  0  0  0  0  0  0  0  0
   -1.3292    1.4339   -0.2134 C   0  0  0  0  0  0  0  0  0  0  0  0
   -1.9411    0.1796   -0.0887 C   0  0  0  0  0  0  0  0  0  0  0  0
    0.7770    3.1205   -0.5664 Cl  0  0  0  0  0  0  0  0  0  0  0  0
    2.2149    0.4871   -0.7048 O   0  0  0  0  0  0  0  0  0  0  0  0
    3.0776   -0.6389   -0.7951 C   0  0  0  0  0  0  0  0  0  0  0  0
    4.4831   -0.1762   -0.9873 C   0  0  0  0  0  0  0  0  0  0  0  0
    4.9343   -0.0774   -2.1597 O   0  0  0  0  0  0  0  0  0  0  0  0
    5.3015    0.1870    0.1346 N   0  0  0  0  0  0  0  0  0  0  0  0
    6.6619    0.6583   -0.0646 C   0  0  0  0  0  0  0  0  0  0  0  0
    4.7994    0.0914    1.4958 C   0  0  0  0  0  0  0  0  0  0  0  0
  1  2  1  0
  2  3  1  0
  3  4  1  0
  4  5  2  0
  5  6  1  0
  6  7  2  0
  6  8  1  0
  8  9  1  0
  9 10  2  0
 10 11  1  0
 11 12  2  0
 12 13  1  0
 13 14  2  0
 12 15  1  0
 11 16  1  0
 16 17  1  0
 17 18  1  0
 18 19  2  0
 18 20  1  0
 20 21  1  0
 20 22  1  0
 14  4  1  0
 14  9  1  0
M  END
$$$$
644428_decoys
     RDKit          3D

 30 33  0  0  0  0  0  0  0  0999 V2000
   -4.6889    2.9442    1.0924 C   0  0  0  0  0  0  0  0  0  0  0  0
   -3.7438    2.4754   -0.0086 C   0  0  0  0  0  0  0  0  0  0  0  0
   -4.5204    1.7719   -1.1254 C   0  0  0  0  0  0  0  0  0  0  0  0
   -5.6806    0.9137   -0.5983 C   0  0  0  0  0  0  0  0  0  0  0  0
   -5.5519    0.5274    0.8792 C   0  0  0  0  0  0  0  0  0  0  0  0
   -5.3945    1.7635    1.7748 C   0  0  0  0  0  0  0  0  0  0  0  0
   -5.9771   -0.2194   -1.4819 N   0  0  0  0  0  0  0  0  0  0  0  0
   -4.8487   -1.5410   -1.3170 S   0  0  0  0  0  0  0  0  0  0  0  0
   -5.0500   -2.4943   -2.4609 O   0  0  0  0  0  0  0  0  0  0  0  0
   -5.1232   -2.2797   -0.0365 O   0  0  0  0  0  0  0  0  0  0  0  0
   -3.1787   -0.9946   -1.3329 C   0  0  0  0  0  0  0  0  0  0  0  0
   -2.4550   -0.9057   -0.1388 C   0  0  0  0  0  0  0  0  0  0  0  0
   -1.1341   -0.4505   -0.1520 C   0  0  0  0  0  0  0  0  0  0  0  0
   -0.5258   -0.0802   -1.3592 C   0  0  0  0  0  0  0  0  0  0  0  0
   -1.2537   -0.1734   -2.5534 C   0  0  0  0  0  0  0  0  0  0  0  0
   -2.5750   -0.6285   -2.5403 C   0  0  0  0  0  0  0  0  0  0  0  0
    0.8639    0.4022   -1.3722 C   0  0  0  0  0  0  0  0  0  0  0  0
    1.6258    0.5222   -0.2657 N   0  0  0  0  0  0  0  0  0  0  0  0
    2.7791    0.9873   -0.7815 C   0  0  0  0  0  0  0  0  0  0  0  0
    2.7290    1.1450   -2.1155 N   0  0  0  0  0  0  0  0  0  0  0  0
    1.5173    0.7744   -2.4901 N   0  0  0  0  0  0  0  0  0  0  0  0
    4.2212    1.3606    0.2042 S   0  0  0  0  0  0  0  0  0  0  0  0
    4.8647   -0.3288    0.0323 C   0  0  0  0  0  0  0  0  0  0  0  0
    6.0989   -0.4840    0.8549 C   0  0  0  0  0  0  0  0  0  0  0  0
    7.2177   -0.2309    0.3338 O   0  0  0  0  0  0  0  0  0  0  0  0
    6.0189   -0.8832    2.2287 N   0  0  0  0  0  0  0  0  0  0  0  0
    4.7746   -1.1895    2.9035 C   0  0  0  0  0  0  0  0  0  0  0  0
    5.1688   -1.6809    4.2831 C   0  0  0  0  0  0  0  0  0  0  0  0
    6.6400   -1.3307    4.4629 C   0  0  0  0  0  0  0  0  0  0  0  0
    7.1815   -1.0218    3.0801 C   0  0  0  0  0  0  0  0  0  0  0  0
  1  2  1  0
  2  3  1  0
  3  4  1  0
  4  5  1  0
  5  6  1  0
  4  7  1  0
  7  8  1  0
  8  9  2  0
  8 10  2  0
  8 11  1  0
 11 12  2  0
 12 13  1  0
 13 14  2  0
 14 15  1  0
 15 16  2  0
 14 17  1  0
 17 18  2  0
 18 19  1  0
 19 20  2  0
 20 21  1  0
 19 22  1  0
 22 23  1  0
 23 24  1  0
 24 25  2  0
 24 26  1  0
 26 27  1  0
 27 28  1  0
 28 29  1  0
 29 30  1  0
  6  1  1  0
 16 11  1  0
 21 17  1  0
 30 26  1  0
M  END
$$$$
644429_decoys
     RDKit          3D

 24 27  0  0  0  0  0  0  0  0999 V2000
    6.0951    1.3759   -0.9117 C   0  0  0  0  0  0  0  0  0  0  0  0
    5.7394    1.3413    0.5764 C   0  0  0  0  0  0  0  0  0  0  0  0
    4.3340    1.1401    0.7437 O   0  0  0  0  0  0  0  0  0  0  0  0
    3.6328    0.2613   -0.0866 C   0  0  0  0  0  0  0  0  0  0  0  0
    4.2461   -0.2072   -1.2562 C   0  0  0  0  0  0  0  0  0  0  0  0
    5.5268    0.2482   -1.5816 O   0  0  0  0  0  0  0  0  0  0  0  0
    3.5794   -1.1167   -2.0797 C   0  0  0  0  0  0  0  0  0  0  0  0
    2.2874   -1.5371   -1.7465 C   0  0  0  0  0  0  0  0  0  0  0  0
    1.6562   -1.0534   -0.5932 C   0  0  0  0  0  0  0  0  0  0  0  0
    2.3381   -0.1499    0.2378 C   0  0  0  0  0  0  0  0  0  0  0  0
    0.3276   -1.5028   -0.2956 N   0  0  0  0  0  0  0  0  0  0  0  0
   -0.4730   -1.1250    0.8317 C   0  0  0  0  0  0  0  0  0  0  0  0
   -0.0411   -0.3239    1.7022 O   0  0  0  0  0  0  0  0  0  0  0  0
   -1.8575   -1.6617    0.9558 C   0  0  0  0  0  0  0  0  0  0  0  0
   -2.7779   -0.8713    0.1440 N   0  0  0  0  0  0  0  0  0  0  0  0
   -3.4175    0.2523    0.5709 C   0  0  0  0  0  0  0  0  0  0  0  0
   -3.3161    0.8034    1.8527 C   0  0  0  0  0  0  0  0  0  0  0  0
   -4.0400    1.9716    2.1425 C   0  0  0  0  0  0  0  0  0  0  0  0
   -4.8503    2.5733    1.1607 C   0  0  0  0  0  0  0  0  0  0  0  0
   -4.9472    2.0152   -0.1232 C   0  0  0  0  0  0  0  0  0  0  0  0
   -4.2212    0.8572   -0.3876 C   0  0  0  0  0  0  0  0  0  0  0  0
   -4.1429   -0.0181   -1.8223 S   0  0  0  0  0  0  0  0  0  0  0  0
   -3.0749   -1.1444   -1.1514 C   0  0  0  0  0  0  0  0  0  0  0  0
   -2.6033   -2.1284   -1.7807 O   0  0  0  0  0  0  0  0  0  0  0  0
  1  2  1  0
  2  3  1  0
  3  4  1  0
  4  5  2  0
  5  6  1  0
  5  7  1  0
  7  8  2  0
  8  9  1  0
  9 10  2  0
  9 11  1  0
 11 12  1  0
 12 13  2  0
 12 14  1  0
 14 15  1  0
 15 16  1  0
 16 17  2  0
 17 18  1  0
 18 19  2  0
 19 20  1  0
 20 21  2  0
 21 22  1  0
 22 23  1  0
 23 24  2  0
  6  1  1  0
 10  4  1  0
 23 15  1  0
 21 16  1  0
M  END
$$$$
644430_decoys
     RDKit          3D

 25 27  0  0  0  0  0  0  0  0999 V2000
   -0.9844    4.6258   -1.3945 C   0  0  0  0  0  0  0  0  0  0  0  0
   -1.5196    3.3673   -0.9017 N   0  0  0  0  0  0  0  0  0  0  0  0
   -2.9565    3.1568   -0.9672 C   0  0  0  0  0  0  0  0  0  0  0  0
   -0.6524    2.3585   -0.3649 C   0  0  0  0  0  0  0  0  0  0  0  0
   -1.1662    1.1861    0.0920 N   0  0  0  0  0  0  0  0  0  0  0  0
   -0.3516    0.2251    0.6023 C   0  0  0  0  0  0  0  0  0  0  0  0
    0.9859    0.4453    0.6541 N   0  0  0  0  0  0  0  0  0  0  0  0
    1.5102    1.6124    0.1972 C   0  0  0  0  0  0  0  0  0  0  0  0
    0.6898    2.5662   -0.3092 N   0  0  0  0  0  0  0  0  0  0  0  0
    2.9189    1.8480    0.2474 N   0  0  0  0  0  0  0  0  0  0  0  0
    3.8740    0.8574    0.7268 C   0  0  0  0  0  0  0  0  0  0  0  0
    4.0743   -0.2117   -0.2940 C   0  0  0  0  0  0  0  0  0  0  0  0
    3.4974   -1.4727   -0.1073 C   0  0  0  0  0  0  0  0  0  0  0  0
    3.6731   -2.4728   -1.0685 C   0  0  0  0  0  0  0  0  0  0  0  0
    4.4251   -2.2129   -2.2183 C   0  0  0  0  0  0  0  0  0  0  0  0
    5.0013   -0.9529   -2.4073 C   0  0  0  0  0  0  0  0  0  0  0  0
    4.8256    0.0475   -1.4463 C   0  0  0  0  0  0  0  0  0  0  0  0
   -0.8562   -0.9935    1.0819 O   0  0  0  0  0  0  0  0  0  0  0  0
   -2.1982   -1.4071    1.0860 C   0  0  0  0  0  0  0  0  0  0  0  0
   -2.5039   -2.6211    1.6182 N   0  0  0  0  0  0  0  0  0  0  0  0
   -3.7575   -3.0782    1.6536 N   0  0  0  0  0  0  0  0  0  0  0  0
   -4.7901   -2.3492    1.1571 C   0  0  0  0  0  0  0  0  0  0  0  0
   -5.9630   -2.8017    1.2021 O   0  0  0  0  0  0  0  0  0  0  0  0
   -4.5421   -1.0989    0.5983 C   0  0  0  0  0  0  0  0  0  0  0  0
   -3.2339   -0.6236    0.5622 C   0  0  0  0  0  0  0  0  0  0  0  0
  1  2  1  0
  2  3  1  0
  2  4  1  0
  4  5  2  0
  5  6  1  0
  6  7  2  0
  7  8  1  0
  8  9  2  0
  8 10  1  0
 10 11  1  0
 11 12  1  0
 12 13  2  0
 13 14  1  0
 14 15  2  0
 15 16  1  0
 16 17  2  0
  6 18  1  0
 18 19  1  0
 19 20  2  0
 20 21  1  0
 21 22  1  0
 22 23  2  0
 22 24  1  0
 24 25  2  0
  9  4  1  0
 17 12  1  0
 25 19  1  0
M  END
$$$$
644432_decoys
     RDKit          3D

 28 31  0  0  0  0  0  0  0  0999 V2000
    2.4384   -0.3438    1.7475 C   0  0  0  0  0  0  0  0  0  0  0  0
    2.0527   -0.8262    0.3858 C   0  0  0  0  0  0  0  0  0  0  0  0
    0.8868   -1.3677    0.1809 N   0  0  0  0  0  0  0  0  0  0  0  0
   -0.1684   -1.5231    1.1439 C   0  0  0  0  0  0  0  0  0  0  0  0
   -0.9549   -2.6772    1.0495 C   0  0  0  0  0  0  0  0  0  0  0  0
   -2.0315   -2.8842    1.9118 C   0  0  0  0  0  0  0  0  0  0  0  0
   -2.3481   -1.9254    2.8717 C   0  0  0  0  0  0  0  0  0  0  0  0
   -1.5930   -0.7561    2.9624 C   0  0  0  0  0  0  0  0  0  0  0  0
   -0.4990   -0.5315    2.1100 C   0  0  0  0  0  0  0  0  0  0  0  0
    0.1867    0.7364    2.1887 N   0  0  0  0  0  0  0  0  0  0  0  0
    1.6148    0.8454    2.0775 C   0  0  0  0  0  0  0  0  0  0  0  0
    2.1861    1.9573    2.2392 O   0  0  0  0  0  0  0  0  0  0  0  0
   -0.5995    1.9534    2.3812 C   0  0  0  0  0  0  0  0  0  0  0  0
   -1.0527    2.4794    1.0618 C   0  0  0  0  0  0  0  0  0  0  0  0
   -0.6583    3.6103    0.6717 O   0  0  0  0  0  0  0  0  0  0  0  0
   -1.9169    1.6879    0.2465 N   0  0  0  0  0  0  0  0  0  0  0  0
   -2.3483    2.1145   -1.0731 C   0  0  0  0  0  0  0  0  0  0  0  0
   -3.1472    1.0292   -1.7029 C   0  0  0  0  0  0  0  0  0  0  0  0
   -4.5221    0.9650   -1.7216 C   0  0  0  0  0  0  0  0  0  0  0  0
   -4.8080   -0.2189   -2.3803 C   0  0  0  0  0  0  0  0  0  0  0  0
   -3.5916   -0.7927   -2.7116 C   0  0  0  0  0  0  0  0  0  0  0  0
   -2.6234   -0.0169   -2.2873 O   0  0  0  0  0  0  0  0  0  0  0  0
    3.0090   -0.7053   -0.7363 C   0  0  0  0  0  0  0  0  0  0  0  0
    2.6610   -1.1598   -2.0187 C   0  0  0  0  0  0  0  0  0  0  0  0
    3.5610   -1.0420   -3.0819 C   0  0  0  0  0  0  0  0  0  0  0  0
    4.8176   -0.4682   -2.8734 C   0  0  0  0  0  0  0  0  0  0  0  0
    5.1743   -0.0113   -1.6021 C   0  0  0  0  0  0  0  0  0  0  0  0
    4.2742   -0.1287   -0.5391 C   0  0  0  0  0  0  0  0  0  0  0  0
  1  2  1  0
  2  3  2  0
  3  4  1  0
  4  5  2  0
  5  6  1  0
  6  7  2  0
  7  8  1  0
  8  9  2  0
  9 10  1  0
 10 11  1  0
 11 12  2  0
 10 13  1  0
 13 14  1  0
 14 15  2  0
 14 16  1  0
 16 17  1  0
 17 18  1  0
 18 19  2  0
 19 20  1  0
 20 21  2  0
 21 22  1  0
  2 23  1  0
 23 24  2  0
 24 25  1  0
 25 26  2  0
 26 27  1  0
 27 28  2  0
 11  1  1  0
  9  4  1  0
 22 18  1  0
 28 23  1  0
M  END
$$$$
644434_decoys
     RDKit          3D

 20 23  0  0  0  0  0  0  0  0999 V2000
   -1.5966   -2.1717   -0.8921 C   0  0  0  0  0  0  0  0  0  0  0  0
   -1.8541   -0.8643   -0.1423 C   0  0  0  0  0  0  0  0  0  0  0  0
   -1.7413   -1.0117    1.3816 C   0  0  0  0  0  0  0  0  0  0  0  0
   -2.6078    0.1331    1.9057 C   0  0  0  0  0  0  0  0  0  0  0  0
   -2.9792    0.9017    0.6386 C   0  0  0  0  0  0  0  0  0  0  0  0
   -3.1751   -0.2268   -0.3876 C   0  0  0  0  0  0  0  0  0  0  0  0
   -3.0473    0.2777   -1.8249 C   0  0  0  0  0  0  0  0  0  0  0  0
   -1.6743    0.5773   -1.9943 O   0  0  0  0  0  0  0  0  0  0  0  0
   -1.1283    0.3654   -0.7069 C   0  0  0  0  0  0  0  0  0  0  0  0
   -1.6451    1.5146    0.1796 C   0  0  0  0  0  0  0  0  0  0  0  0
    0.3706    0.2571   -0.7263 C   0  0  0  0  0  0  0  0  0  0  0  0
    0.9662    0.0411   -1.8163 O   0  0  0  0  0  0  0  0  0  0  0  0
    1.1025    0.3542    0.5045 N   0  0  0  0  0  0  0  0  0  0  0  0
    2.5230    0.2520    0.6689 C   0  0  0  0  0  0  0  0  0  0  0  0
    3.0676    0.3645    1.9510 C   0  0  0  0  0  0  0  0  0  0  0  0
    4.4121    0.2717    2.1373 N   0  0  0  0  0  0  0  0  0  0  0  0
    5.2632    0.0690    1.0960 C   0  0  0  0  0  0  0  0  0  0  0  0
    4.7644   -0.0493   -0.2024 C   0  0  0  0  0  0  0  0  0  0  0  0
    3.3880    0.0431   -0.4131 C   0  0  0  0  0  0  0  0  0  0  0  0
   -4.4087   -1.0986   -0.1642 C   0  0  0  0  0  0  0  0  0  0  0  0
  1  2  1  0
  2  3  1  0
  3  4  1  0
  4  5  1  0
  5  6  1  0
  6  7  1  0
  7  8  1  0
  8  9  1  0
  9 10  1  0
  9 11  1  0
 11 12  2  0
 11 13  1  0
 13 14  1  0
 14 15  2  0
 15 16  1  0
 16 17  2  0
 17 18  1  0
 18 19  2  0
  6 20  1  0
  6  2  1  0
  9  2  1  0
 10  5  1  0
 19 14  1  0
M  END
$$$$
644435_decoys
     RDKit          3D

 25 29  0  0  0  0  0  0  0  0999 V2000
    2.1690   -1.9580   -1.2422 C   0  0  0  0  0  0  0  0  0  0  0  0
    1.2110   -0.9324   -1.8541 C   0  0  0  0  0  0  0  0  0  0  0  0
    0.0203   -0.7405   -1.0196 N   0  0  0  0  0  0  0  0  0  0  0  0
   -0.0830   -1.4524    0.2544 C   0  0  0  0  0  0  0  0  0  0  0  0
    1.2117   -1.2768    1.0421 C   0  0  0  0  0  0  0  0  0  0  0  0
    2.4706   -1.6722    0.2399 C   0  0  0  0  0  0  0  0  0  0  0  0
    3.5131   -0.5773    0.3339 C   0  0  0  0  0  0  0  0  0  0  0  0
    3.1504    0.7768    0.2422 C   0  0  0  0  0  0  0  0  0  0  0  0
    4.0995    1.7501    0.2757 N   0  0  0  0  0  0  0  0  0  0  0  0
    5.4215    1.4524    0.3846 C   0  0  0  0  0  0  0  0  0  0  0  0
    5.8352    0.1220    0.4591 C   0  0  0  0  0  0  0  0  0  0  0  0
    4.8771   -0.8918    0.4262 C   0  0  0  0  0  0  0  0  0  0  0  0
    2.9726   -2.8472    0.8051 O   0  0  0  0  0  0  0  0  0  0  0  0
   -1.0275    0.1369   -1.4816 C   0  0  0  0  0  0  0  0  0  0  0  0
   -0.9220    0.6653   -2.6241 O   0  0  0  0  0  0  0  0  0  0  0  0
   -2.2473    0.4429   -0.6341 C   0  0  0  0  0  0  0  0  0  0  0  0
   -1.8088    1.0604    0.7095 C   0  0  0  0  0  0  0  0  0  0  0  0
   -3.0323    1.3482    1.5927 C   0  0  0  0  0  0  0  0  0  0  0  0
   -3.7954    0.0381    1.8457 C   0  0  0  0  0  0  0  0  0  0  0  0
   -4.2633   -0.5651    0.5115 C   0  0  0  0  0  0  0  0  0  0  0  0
   -3.0399   -0.8536   -0.3718 C   0  0  0  0  0  0  0  0  0  0  0  0
   -5.1779    0.4387   -0.2071 C   0  0  0  0  0  0  0  0  0  0  0  0
   -4.4154    1.7462   -0.4708 C   0  0  0  0  0  0  0  0  0  0  0  0
   -3.9538    2.3413    0.8683 C   0  0  0  0  0  0  0  0  0  0  0  0
   -3.1853    1.4479   -1.3430 C   0  0  0  0  0  0  0  0  0  0  0  0
  1  2  1  0
  2  3  1  0
  3  4  1  0
  4  5  1  0
  5  6  1  0
  6  7  1  0
  7  8  2  0
  8  9  1  0
  9 10  2  0
 10 11  1  0
 11 12  2  0
  6 13  1  0
  3 14  1  0
 14 15  2  0
 14 16  1  0
 16 17  1  0
 17 18  1  0
 18 19  1  0
 19 20  1  0
 20 21  1  0
 20 22  1  0
 22 23  1  0
 23 24  1  0
 23 25  1  0
  6  1  1  0
 12  7  1  0
 21 16  1  0
 25 16  1  0
 24 18  1  0
M  END
$$$$
644436_decoys
     RDKit          3D

 17 19  0  0  0  0  0  0  0  0999 V2000
   -2.1962   -1.5613   -1.9211 C   0  0  0  0  0  0  0  0  0  0  0  0
   -2.7314   -0.5696   -0.9443 C   0  0  0  0  0  0  0  0  0  0  0  0
   -4.1192   -0.4024   -0.8876 C   0  0  0  0  0  0  0  0  0  0  0  0
   -4.6889    0.5084    0.0033 C   0  0  0  0  0  0  0  0  0  0  0  0
   -3.8720    1.2610    0.8465 C   0  0  0  0  0  0  0  0  0  0  0  0
   -2.4858    1.1022    0.7983 C   0  0  0  0  0  0  0  0  0  0  0  0
   -1.8946    0.1912   -0.0910 C   0  0  0  0  0  0  0  0  0  0  0  0
   -0.4181    0.0714   -0.0916 C   0  0  0  0  0  0  0  0  0  0  0  0
    0.3834    0.8046    0.7302 N   0  0  0  0  0  0  0  0  0  0  0  0
    1.6090    0.3748    0.3893 C   0  0  0  0  0  0  0  0  0  0  0  0
    1.5192   -0.5673   -0.5885 C   0  0  0  0  0  0  0  0  0  0  0  0
    0.2607   -0.7489   -0.8801 O   0  0  0  0  0  0  0  0  0  0  0  0
    2.6400   -1.1867   -1.1332 C   0  0  0  0  0  0  0  0  0  0  0  0
    3.8958   -0.7986   -0.6290 C   0  0  0  0  0  0  0  0  0  0  0  0
    3.9933    0.1801    0.3871 C   0  0  0  0  0  0  0  0  0  0  0  0
    2.8335    0.7828    0.9114 C   0  0  0  0  0  0  0  0  0  0  0  0
    5.2714    0.5583    0.8830 N   0  0  0  0  0  0  0  0  0  0  0  0
  1  2  1  0
  2  3  2  0
  3  4  1  0
  4  5  2  0
  5  6  1  0
  6  7  2  0
  7  8  1  0
  8  9  2  0
  9 10  1  0
 10 11  2  0
 11 12  1  0
 11 13  1  0
 13 14  2  0
 14 15  1  0
 15 16  2  0
 15 17  1  0
  7  2  1  0
 12  8  1  0
 16 10  1  0
M  END
$$$$
644437_decoys
     RDKit          3D

 28 31  0  0  0  0  0  0  0  0999 V2000
   -3.2717   -3.7772    2.5347 C   0  0  0  0  0  0  0  0  0  0  0  0
   -3.4862   -3.8727    1.1568 C   0  0  0  0  0  0  0  0  0  0  0  0
   -3.0602   -2.8454    0.3100 C   0  0  0  0  0  0  0  0  0  0  0  0
   -2.4143   -1.7181    0.8383 C   0  0  0  0  0  0  0  0  0  0  0  0
   -2.2060   -1.6257    2.2220 C   0  0  0  0  0  0  0  0  0  0  0  0
   -2.6326   -2.6539    3.0673 C   0  0  0  0  0  0  0  0  0  0  0  0
   -1.9796   -0.6569   -0.0309 N   0  0  0  0  0  0  0  0  0  0  0  0
   -2.6077    0.5624    0.0222 C   0  0  0  0  0  0  0  0  0  0  0  0
   -3.5682    0.7514    0.8217 O   0  0  0  0  0  0  0  0  0  0  0  0
   -2.1911    1.6029   -0.8189 C   0  0  0  0  0  0  0  0  0  0  0  0
   -2.8034    2.8650   -0.7982 C   0  0  0  0  0  0  0  0  0  0  0  0
   -2.3565    3.8748   -1.6558 C   0  0  0  0  0  0  0  0  0  0  0  0
   -1.2985    3.6292   -2.5364 C   0  0  0  0  0  0  0  0  0  0  0  0
   -0.6847    2.3733   -2.5621 C   0  0  0  0  0  0  0  0  0  0  0  0
   -1.1288    1.3608   -1.7068 C   0  0  0  0  0  0  0  0  0  0  0  0
   -0.5324    0.1463   -1.7265 N   0  0  0  0  0  0  0  0  0  0  0  0
   -0.9367   -0.8560   -0.9035 C   0  0  0  0  0  0  0  0  0  0  0  0
   -0.0369   -2.4146   -0.9719 S   0  0  0  0  0  0  0  0  0  0  0  0
    1.0907   -1.9514    0.3807 C   0  0  0  0  0  0  0  0  0  0  0  0
    2.1556   -1.0359   -0.1146 C   0  0  0  0  0  0  0  0  0  0  0  0
    3.1349   -1.5036   -0.7546 O   0  0  0  0  0  0  0  0  0  0  0  0
    2.0392    0.3698    0.1159 N   0  0  0  0  0  0  0  0  0  0  0  0
    3.0346    1.3294   -0.3396 C   0  0  0  0  0  0  0  0  0  0  0  0
    4.2418    1.2731    0.5326 C   0  0  0  0  0  0  0  0  0  0  0  0
    4.3914    1.9479    1.7234 C   0  0  0  0  0  0  0  0  0  0  0  0
    5.6442    1.5769    2.1805 C   0  0  0  0  0  0  0  0  0  0  0  0
    6.1665    0.7027    1.2418 C   0  0  0  0  0  0  0  0  0  0  0  0
    5.2968    0.5456    0.2734 O   0  0  0  0  0  0  0  0  0  0  0  0
  1  2  2  0
  2  3  1  0
  3  4  2  0
  4  5  1  0
  5  6  2  0
  4  7  1  0
  7  8  1  0
  8  9  2  0
  8 10  1  0
 10 11  2  0
 11 12  1  0
 12 13  2  0
 13 14  1  0
 14 15  2  0
 15 16  1  0
 16 17  2  0
 17 18  1  0
 18 19  1  0
 19 20  1  0
 20 21  2  0
 20 22  1  0
 22 23  1  0
 23 24  1  0
 24 25  2  0
 25 26  1  0
 26 27  2  0
 27 28  1  0
  6  1  1  0
 17  7  1  0
 15 10  1  0
 28 24  1  0
M  END
$$$$
644438_decoys
     RDKit          3D

 18 20  0  0  0  0  0  0  0  0999 V2000
   -4.1925    1.8713   -0.5368 C   0  0  0  0  0  0  0  0  0  0  0  0
   -4.3874    0.5664   -0.9976 C   0  0  0  0  0  0  0  0  0  0  0  0
   -3.3173   -0.3329   -1.0236 C   0  0  0  0  0  0  0  0  0  0  0  0
   -2.0457    0.0655   -0.5895 C   0  0  0  0  0  0  0  0  0  0  0  0
   -1.8583    1.3769   -0.1285 C   0  0  0  0  0  0  0  0  0  0  0  0
   -2.9278    2.2767   -0.1021 C   0  0  0  0  0  0  0  0  0  0  0  0
   -0.9300   -0.8973   -0.6246 C   0  0  0  0  0  0  0  0  0  0  0  0
    0.3821   -0.7034   -0.2455 C   0  0  0  0  0  0  0  0  0  0  0  0
    1.0742    0.3907    0.2688 C   0  0  0  0  0  0  0  0  0  0  0  0
    2.4467    0.2241    0.5483 C   0  0  0  0  0  0  0  0  0  0  0  0
    3.0702   -1.0255    0.3031 C   0  0  0  0  0  0  0  0  0  0  0  0
    2.3396   -2.1099   -0.2175 C   0  0  0  0  0  0  0  0  0  0  0  0
    0.9890   -1.9032   -0.4790 C   0  0  0  0  0  0  0  0  0  0  0  0
    0.1037   -2.7851   -0.9728 N   0  0  0  0  0  0  0  0  0  0  0  0
   -1.0356   -2.1463   -1.0461 O   0  0  0  0  0  0  0  0  0  0  0  0
    3.2249    1.3479    1.0928 C   0  0  0  0  0  0  0  0  0  0  0  0
    4.4514    1.2116    1.3465 O   0  0  0  0  0  0  0  0  0  0  0  0
    2.6127    2.5726    1.3328 O   0  0  0  0  0  0  0  0  0  0  0  0
  1  2  2  0
  2  3  1  0
  3  4  2  0
  4  5  1  0
  5  6  2  0
  4  7  1  0
  7  8  2  0
  8  9  1  0
  9 10  2  0
 10 11  1  0
 11 12  2  0
 12 13  1  0
 13 14  2  0
 14 15  1  0
 10 16  1  0
 16 17  2  0
 16 18  1  0
  6  1  1  0
 15  7  1  0
 13  8  1  0
M  END
$$$$
644439_decoys
     RDKit          3D

 24 26  0  0  0  0  0  0  0  0999 V2000
   -2.7682   -0.7741    4.9491 C   0  0  0  0  0  0  0  0  0  0  0  0
   -2.2497    0.6124    4.6164 C   0  0  0  0  0  0  0  0  0  0  0  0
   -1.1973    0.5272    3.6635 O   0  0  0  0  0  0  0  0  0  0  0  0
   -1.4289    0.2981    2.3029 C   0  0  0  0  0  0  0  0  0  0  0  0
   -2.6138    0.1862    1.8826 O   0  0  0  0  0  0  0  0  0  0  0  0
   -0.3015    0.1773    1.3410 C   0  0  0  0  0  0  0  0  0  0  0  0
    0.9947    0.2760    1.7085 C   0  0  0  0  0  0  0  0  0  0  0  0
    2.0122    0.0581    0.7717 O   0  0  0  0  0  0  0  0  0  0  0  0
    1.7631   -0.4401   -0.5105 C   0  0  0  0  0  0  0  0  0  0  0  0
    0.5001   -0.5497   -0.9570 C   0  0  0  0  0  0  0  0  0  0  0  0
   -0.6387   -0.0050   -0.1265 C   0  0  0  0  0  0  0  0  0  0  0  0
   -1.1464    1.2784   -0.7151 C   0  0  0  0  0  0  0  0  0  0  0  0
   -2.4020    1.4646   -1.2436 C   0  0  0  0  0  0  0  0  0  0  0  0
   -2.4734    2.7056   -1.6614 O   0  0  0  0  0  0  0  0  0  0  0  0
   -1.3384    3.3298   -1.4347 C   0  0  0  0  0  0  0  0  0  0  0  0
   -0.4471    2.4637   -0.8291 C   0  0  0  0  0  0  0  0  0  0  0  0
    0.2252   -1.1596   -2.2774 C   0  0  0  0  0  0  0  0  0  0  0  0
   -0.9592   -1.2811   -2.6877 O   0  0  0  0  0  0  0  0  0  0  0  0
    1.3525   -1.6062   -3.1618 C   0  0  0  0  0  0  0  0  0  0  0  0
    2.6102   -1.9486   -2.3607 C   0  0  0  0  0  0  0  0  0  0  0  0
    2.9382   -0.8286   -1.3684 C   0  0  0  0  0  0  0  0  0  0  0  0
    2.4271   -3.2685   -1.6276 C   0  0  0  0  0  0  0  0  0  0  0  0
    3.7696   -2.0955   -3.3229 C   0  0  0  0  0  0  0  0  0  0  0  0
    1.3716    0.5795    3.0488 N   0  0  0  0  0  0  0  0  0  0  0  0
  1  2  1  0
  2  3  1  0
  3  4  1  0
  4  5  2  0
  4  6  1  0
  6  7  2  0
  7  8  1  0
  8  9  1  0
  9 10  2  0
 10 11  1  0
 11 12  1  0
 12 13  2  0
 13 14  1  0
 14 15  1  0
 15 16  2  0
 10 17  1  0
 17 18  2  0
 17 19  1  0
 19 20  1  0
 20 21  1  0
 20 22  1  0
 20 23  1  0
  7 24  1  0
 11  6  1  0
 21  9  1  0
 16 12  1  0
M  END
$$$$
