MODEL 1
REMARK minimizedAffinity -6.09620762
REMARK minimizedRMSD -1
REMARK  Name = imageData/pubchem/ligands/644380_decoys.pdb
REMARK  6 active torsions:
REMARK  status: ('A' for Active; 'I' for Inactive)
REMARK    1  A    between atoms: C_10  and  C_11
REMARK    2  A    between atoms: C_11  and  C_21
REMARK    3  A    between atoms: C_11  and  O_23
REMARK    4  A    between atoms: N_12  and  O_23
REMARK    5  A    between atoms: C_14  and  O_22
REMARK    6  A    between atoms: C_21  and  O_22
REMARK                            x       y       z     vdW  Elec       q    Type
REMARK                         _______ _______ _______ _____ _____    ______ ____
ROOT
ATOM      1  C   UNL     1      10.403  -6.496   1.207  0.00  0.00    +0.000 C 
ATOM      2  C   UNL     1       9.040  -5.883   0.948  0.00  0.00    +0.000 C 
ATOM      3  C   UNL     1       8.072  -6.931   0.425  0.00  0.00    +0.000 C 
ATOM      4  C   UNL     1       8.239  -7.138  -1.072  0.00  0.00    +0.000 C 
ATOM      5  O   UNL     1       9.398  -7.872  -1.329  0.00  0.00    +0.000 OA
ATOM      6  C   UNL     1       9.661  -7.652  -2.683  0.00  0.00    +0.000 C 
ATOM      7  C   UNL     1      11.150  -7.418  -2.912  0.00  0.00    +0.000 C 
ATOM      8  C   UNL     1      11.625  -6.162  -2.198  0.00  0.00    +0.000 C 
ATOM      9  N   UNL     1      11.076  -4.974  -2.846  0.00  0.00    +0.000 NA
ATOM     10  C   UNL     1      10.447  -4.098  -1.846  0.00  0.00    +0.000 C 
ATOM     11  O   UNL     1      11.880  -8.519  -2.464  0.00  0.00    +0.000 OA
ATOM     12  C   UNL     2      10.559  -5.504  -1.369  0.00  0.00    +0.000 C 
ATOM     13  O   UNL     2       9.816  -5.320  -0.369  0.00  0.00    +0.000 OA
ATOM     14  O   UNL     2      10.273  -6.534  -2.256  0.00  0.00    +0.000 OA
ENDROOT
BRANCH  10  15
ATOM     15  C   UNL     1      11.462  -3.498  -0.870  0.00  0.00    +0.000 C 
BRANCH  15  16
ATOM     16  C   UNL     2      10.510  -2.740  -1.506  0.00  0.00    +0.000 C 
BRANCH  16  17
ATOM     17  O   UNL     2       9.582  -2.031  -1.036  0.00  0.00    +0.000 OA
BRANCH  17  19
ATOM     18  C   UNL     1       8.280  -2.164  -1.440  0.00  0.00    +0.000 C 
ATOM     19  C   UNL     1       9.319  -1.059  -1.653  0.00  0.00    +0.000 C 
ENDBRANCH  17  19
ENDBRANCH  16  17
ENDBRANCH  15  16
BRANCH  15  20
ATOM     20  O   UNL     2      11.569  -2.983  -0.640  0.00  0.00    +0.000 OA
BRANCH  20  21
ATOM     21  N   UNL     1      12.767  -3.267  -0.267  0.00  0.00    +0.000 NA
ATOM     22  C   UNL     1      13.735  -2.215  -0.392  0.00  0.00    +0.000 C 
ATOM     23  O   UNL     1      13.627  -1.359  -1.310  0.00  0.00    +0.000 OA
ATOM     24  C   UNL     1      14.889  -2.117   0.548  0.00  0.00    +0.000 C 
ENDBRANCH  20  21
ENDBRANCH  15  20
ENDBRANCH  10  15
TORSDOF 6
ENDMDL
MODEL 2
REMARK minimizedAffinity -5.99594831
REMARK minimizedRMSD -1
REMARK  Name = imageData/pubchem/ligands/644380_decoys.pdb
REMARK  6 active torsions:
REMARK  status: ('A' for Active; 'I' for Inactive)
REMARK    1  A    between atoms: C_10  and  C_11
REMARK    2  A    between atoms: C_11  and  C_21
REMARK    3  A    between atoms: C_11  and  O_23
REMARK    4  A    between atoms: N_12  and  O_23
REMARK    5  A    between atoms: C_14  and  O_22
REMARK    6  A    between atoms: C_21  and  O_22
REMARK                            x       y       z     vdW  Elec       q    Type
REMARK                         _______ _______ _______ _____ _____    ______ ____
ROOT
ATOM      1  C   UNL     1      10.113  -5.461  -3.756  0.00  0.00    +0.000 C 
ATOM      2  C   UNL     1      11.605  -5.708  -3.634  0.00  0.00    +0.000 C 
ATOM      3  C   UNL     1      11.874  -7.040  -2.953  0.00  0.00    +0.000 C 
ATOM      4  C   UNL     1      11.794  -6.911  -1.440  0.00  0.00    +0.000 C 
ATOM      5  O   UNL     1      10.461  -6.810  -1.036  0.00  0.00    +0.000 OA
ATOM      6  C   UNL     1      10.525  -6.300   0.263  0.00  0.00    +0.000 C 
ATOM      7  C   UNL     1       9.461  -5.230   0.474  0.00  0.00    +0.000 C 
ATOM      8  C   UNL     1       9.691  -4.036  -0.441  0.00  0.00    +0.000 C 
ATOM      9  N   UNL     1      10.882  -3.301  -0.023  0.00  0.00    +0.000 NA
ATOM     10  C   UNL     1      11.772  -3.085  -1.173  0.00  0.00    +0.000 C 
ATOM     11  O   UNL     1       8.194  -5.764   0.240  0.00  0.00    +0.000 OA
ATOM     12  C   UNL     2      10.838  -4.224  -1.393  0.00  0.00    +0.000 C 
ATOM     13  O   UNL     2      11.436  -4.633  -2.423  0.00  0.00    +0.000 OA
ATOM     14  O   UNL     2      10.599  -5.102  -0.343  0.00  0.00    +0.000 OA
ENDROOT
BRANCH  10  15
ATOM     15  C   UNL     1      11.162  -2.150  -2.219  0.00  0.00    +0.000 C 
BRANCH  15  16
ATOM     16  C   UNL     2      12.346  -1.874  -1.583  0.00  0.00    +0.000 C 
BRANCH  16  17
ATOM     17  O   UNL     2      13.530  -2.173  -1.893  0.00  0.00    +0.000 OA
BRANCH  17  19
ATOM     18  C   UNL     1      14.570  -1.298  -2.054  0.00  0.00    +0.000 C 
ATOM     19  C   UNL     1      14.266  -2.352  -0.986  0.00  0.00    +0.000 C 
ENDBRANCH  17  19
ENDBRANCH  16  17
ENDBRANCH  15  16
BRANCH  15  20
ATOM     20  O   UNL     2      11.308  -1.659  -2.480  0.00  0.00    +0.000 OA
BRANCH  20  21
ATOM     21  N   UNL     1      10.286  -1.633  -3.262  0.00  0.00    +0.000 NA
ATOM     22  C   UNL     1      10.567  -1.615  -4.670  0.00  0.00    +0.000 C 
ATOM     23  O   UNL     1      11.613  -1.060  -5.101  0.00  0.00    +0.000 OA
ATOM     24  C   UNL     1       9.630  -2.239  -5.647  0.00  0.00    +0.000 C 
ENDBRANCH  20  21
ENDBRANCH  15  20
ENDBRANCH  10  15
TORSDOF 6
ENDMDL
MODEL 3
REMARK minimizedAffinity -5.77393723
REMARK minimizedRMSD -1
REMARK  Name = imageData/pubchem/ligands/644380_decoys.pdb
REMARK  6 active torsions:
REMARK  status: ('A' for Active; 'I' for Inactive)
REMARK    1  A    between atoms: C_10  and  C_11
REMARK    2  A    between atoms: C_11  and  C_21
REMARK    3  A    between atoms: C_11  and  O_23
REMARK    4  A    between atoms: N_12  and  O_23
REMARK    5  A    between atoms: C_14  and  O_22
REMARK    6  A    between atoms: C_21  and  O_22
REMARK                            x       y       z     vdW  Elec       q    Type
REMARK                         _______ _______ _______ _____ _____    ______ ____
ROOT
ATOM      1  C   UNL     1      11.438  -4.595  -4.489  0.00  0.00    +0.000 C 
ATOM      2  C   UNL     1       9.976  -4.370  -4.154  0.00  0.00    +0.000 C 
ATOM      3  C   UNL     1       9.565  -2.942  -4.478  0.00  0.00    +0.000 C 
ATOM      4  C   UNL     1       9.947  -1.991  -3.355  0.00  0.00    +0.000 C 
ATOM      5  O   UNL     1      11.322  -1.752  -3.373  0.00  0.00    +0.000 OA
ATOM      6  C   UNL     1      11.605  -1.228  -2.109  0.00  0.00    +0.000 C 
ATOM      7  C   UNL     1      12.889  -1.830  -1.551  0.00  0.00    +0.000 C 
ATOM      8  C   UNL     1      12.748  -3.331  -1.345  0.00  0.00    +0.000 C 
ATOM      9  N   UNL     1      11.834  -3.605  -0.239  0.00  0.00    +0.000 NA
ATOM     10  C   UNL     1      10.813  -4.577  -0.658  0.00  0.00    +0.000 C 
ATOM     11  O   UNL     1      13.952  -1.572  -2.417  0.00  0.00    +0.000 OA
ATOM     12  C   UNL     2      11.432  -3.880  -1.818  0.00  0.00    +0.000 C 
ATOM     13  O   UNL     2      10.584  -4.309  -2.645  0.00  0.00    +0.000 OA
ATOM     14  O   UNL     2      11.672  -2.515  -1.727  0.00  0.00    +0.000 OA
ENDROOT
BRANCH  10  15
ATOM     15  C   UNL     1      11.402  -5.960  -0.945  0.00  0.00    +0.000 C 
BRANCH  15  16
ATOM     16  C   UNL     2      10.458  -5.746   0.029  0.00  0.00    +0.000 C 
BRANCH  16  17
ATOM     17  O   UNL     2       9.265  -6.138   0.111  0.00  0.00    +0.000 OA
BRANCH  17  19
ATOM     18  C   UNL     1       8.069  -5.548  -0.200  0.00  0.00    +0.000 C 
ATOM     19  C   UNL     1       8.722  -5.914   1.136  0.00  0.00    +0.000 C 
ENDBRANCH  17  19
ENDBRANCH  16  17
ENDBRANCH  15  16
BRANCH  15  20
ATOM     20  O   UNL     2      11.322  -6.497  -0.758  0.00  0.00    +0.000 OA
BRANCH  20  21
ATOM     21  N   UNL     1      12.249  -7.014  -1.486  0.00  0.00    +0.000 NA
ATOM     22  C   UNL     1      11.816  -7.901  -2.527  0.00  0.00    +0.000 C 
ATOM     23  O   UNL     1      10.775  -8.595  -2.376  0.00  0.00    +0.000 OA
ATOM     24  C   UNL     1      12.588  -8.030  -3.797  0.00  0.00    +0.000 C 
ENDBRANCH  20  21
ENDBRANCH  15  20
ENDBRANCH  10  15
TORSDOF 6
ENDMDL
MODEL 4
REMARK minimizedAffinity -5.5349431
REMARK minimizedRMSD -1
REMARK  Name = imageData/pubchem/ligands/644380_decoys.pdb
REMARK  6 active torsions:
REMARK  status: ('A' for Active; 'I' for Inactive)
REMARK    1  A    between atoms: C_10  and  C_11
REMARK    2  A    between atoms: C_11  and  C_21
REMARK    3  A    between atoms: C_11  and  O_23
REMARK    4  A    between atoms: N_12  and  O_23
REMARK    5  A    between atoms: C_14  and  O_22
REMARK    6  A    between atoms: C_21  and  O_22
REMARK                            x       y       z     vdW  Elec       q    Type
REMARK                         _______ _______ _______ _____ _____    ______ ____
ROOT
ATOM      1  C   UNL     1      10.311  -4.615  -4.407  0.00  0.00    +0.000 C 
ATOM      2  C   UNL     1      11.539  -5.156  -3.698  0.00  0.00    +0.000 C 
ATOM      3  C   UNL     1      11.141  -5.931  -2.452  0.00  0.00    +0.000 C 
ATOM      4  C   UNL     1      10.900  -4.998  -1.276  0.00  0.00    +0.000 C 
ATOM      5  O   UNL     1       9.680  -4.337  -1.429  0.00  0.00    +0.000 OA
ATOM      6  C   UNL     1       9.755  -3.252  -0.552  0.00  0.00    +0.000 C 
ATOM      7  C   UNL     1       9.199  -1.993  -1.204  0.00  0.00    +0.000 C 
ATOM      8  C   UNL     1      10.024  -1.589  -2.417  0.00  0.00    +0.000 C 
ATOM      9  N   UNL     1      11.336  -1.104  -1.996  0.00  0.00    +0.000 NA
ATOM     10  C   UNL     1      12.395  -1.789  -2.752  0.00  0.00    +0.000 C 
ATOM     11  O   UNL     1       7.873  -2.199  -1.585  0.00  0.00    +0.000 OA
ATOM     12  C   UNL     2      11.122  -2.562  -2.743  0.00  0.00    +0.000 C 
ATOM     13  O   UNL     2      11.646  -3.603  -3.221  0.00  0.00    +0.000 OA
ATOM     14  O   UNL     2      10.396  -2.638  -1.561  0.00  0.00    +0.000 OA
ENDROOT
BRANCH  10  15
ATOM     15  C   UNL     1      12.377  -1.433  -4.240  0.00  0.00    +0.000 C 
BRANCH  15  16
ATOM     16  C   UNL     2      13.540  -1.532  -3.517  0.00  0.00    +0.000 C 
BRANCH  16  17
ATOM     17  O   UNL     2      13.758  -1.347  -2.291  0.00  0.00    +0.000 OA
BRANCH  17  19
ATOM     18  C   UNL     1      14.608  -1.999  -1.439  0.00  0.00    +0.000 C 
ATOM     19  C   UNL     1      14.628  -0.589  -2.035  0.00  0.00    +0.000 C 
ENDBRANCH  17  19
ENDBRANCH  16  17
ENDBRANCH  15  16
BRANCH  15  20
ATOM     20  O   UNL     2      12.764  -1.334  -4.653  0.00  0.00    +0.000 OA
BRANCH  20  21
ATOM     21  N   UNL     1      11.943  -0.740  -5.445  0.00  0.00    +0.000 NA
ATOM     22  C   UNL     1      12.295  -0.738  -6.837  0.00  0.00    +0.000 C 
ATOM     23  O   UNL     1      13.506  -0.732  -7.184  0.00  0.00    +0.000 OA
ATOM     24  C   UNL     1      11.245  -0.731  -7.895  0.00  0.00    +0.000 C 
ENDBRANCH  20  21
ENDBRANCH  15  20
ENDBRANCH  10  15
TORSDOF 6
ENDMDL
MODEL 5
REMARK minimizedAffinity -5.36250257
REMARK minimizedRMSD -1
REMARK  Name = imageData/pubchem/ligands/644380_decoys.pdb
REMARK  6 active torsions:
REMARK  status: ('A' for Active; 'I' for Inactive)
REMARK    1  A    between atoms: C_10  and  C_11
REMARK    2  A    between atoms: C_11  and  C_21
REMARK    3  A    between atoms: C_11  and  O_23
REMARK    4  A    between atoms: N_12  and  O_23
REMARK    5  A    between atoms: C_14  and  O_22
REMARK    6  A    between atoms: C_21  and  O_22
REMARK                            x       y       z     vdW  Elec       q    Type
REMARK                         _______ _______ _______ _____ _____    ______ ____
ROOT
ATOM      1  C   UNL     1      11.119  -3.229  -0.261  0.00  0.00    +0.000 C 
ATOM      2  C   UNL     1      12.588  -3.559  -0.451  0.00  0.00    +0.000 C 
ATOM      3  C   UNL     1      13.294  -2.446  -1.207  0.00  0.00    +0.000 C 
ATOM      4  C   UNL     1      13.091  -2.583  -2.708  0.00  0.00    +0.000 C 
ATOM      5  O   UNL     1      11.797  -2.194  -3.056  0.00  0.00    +0.000 OA
ATOM      6  C   UNL     1      11.598  -2.732  -4.330  0.00  0.00    +0.000 C 
ATOM      7  C   UNL     1      10.203  -3.335  -4.448  0.00  0.00    +0.000 C 
ATOM      8  C   UNL     1      10.023  -4.499  -3.484  0.00  0.00    +0.000 C 
ATOM      9  N   UNL     1      10.832  -5.637  -3.910  0.00  0.00    +0.000 NA
ATOM     10  C   UNL     1      11.639  -6.132  -2.785  0.00  0.00    +0.000 C 
ATOM     11  O   UNL     1       9.239  -2.360  -4.193  0.00  0.00    +0.000 OA
ATOM     12  C   UNL     2      11.207  -4.722  -2.587  0.00  0.00    +0.000 C 
ATOM     13  O   UNL     2      11.968  -4.532  -1.601  0.00  0.00    +0.000 OA
ATOM     14  O   UNL     2      11.255  -3.851  -3.668  0.00  0.00    +0.000 OA
ENDROOT
BRANCH  10  15
ATOM     15  C   UNL     1      10.783  -6.740  -1.672  0.00  0.00    +0.000 C 
BRANCH  15  16
ATOM     16  C   UNL     2      11.920  -7.346  -2.144  0.00  0.00    +0.000 C 
BRANCH  16  17
ATOM     17  O   UNL     2      12.094  -8.499  -2.621  0.00  0.00    +0.000 OA
BRANCH  17  19
ATOM     18  C   UNL     1      12.004  -9.775  -3.109  0.00  0.00    +0.000 C 
ATOM     19  C   UNL     1      12.850  -8.569  -3.526  0.00  0.00    +0.000 C 
ENDBRANCH  17  19
ENDBRANCH  16  17
ENDBRANCH  15  16
BRANCH  15  20
ATOM     20  O   UNL     2      10.806  -7.198  -1.327  0.00  0.00    +0.000 OA
BRANCH  20  21
ATOM     21  N   UNL     1       9.618  -7.051  -0.854  0.00  0.00    +0.000 NA
ATOM     22  C   UNL     1       9.530  -6.563   0.493  0.00  0.00    +0.000 C 
ATOM     23  O   UNL     1      10.431  -6.840   1.328  0.00  0.00    +0.000 OA
ATOM     24  C   UNL     1       8.373  -5.732   0.934  0.00  0.00    +0.000 C 
ENDBRANCH  20  21
ENDBRANCH  15  20
ENDBRANCH  10  15
TORSDOF 6
ENDMDL
MODEL 6
REMARK minimizedAffinity -5.36088753
REMARK minimizedRMSD -1
REMARK  Name = imageData/pubchem/ligands/644380_decoys.pdb
REMARK  6 active torsions:
REMARK  status: ('A' for Active; 'I' for Inactive)
REMARK    1  A    between atoms: C_10  and  C_11
REMARK    2  A    between atoms: C_11  and  C_21
REMARK    3  A    between atoms: C_11  and  O_23
REMARK    4  A    between atoms: N_12  and  O_23
REMARK    5  A    between atoms: C_14  and  O_22
REMARK    6  A    between atoms: C_21  and  O_22
REMARK                            x       y       z     vdW  Elec       q    Type
REMARK                         _______ _______ _______ _____ _____    ______ ____
ROOT
ATOM      1  C   UNL     1      11.353  -3.913  -0.610  0.00  0.00    +0.000 C 
ATOM      2  C   UNL     1      10.270  -2.874  -0.830  0.00  0.00    +0.000 C 
ATOM      3  C   UNL     1       8.896  -3.524  -0.834  0.00  0.00    +0.000 C 
ATOM      4  C   UNL     1       8.572  -4.119  -2.195  0.00  0.00    +0.000 C 
ATOM      5  O   UNL     1       9.290  -5.301  -2.387  0.00  0.00    +0.000 OA
ATOM      6  C   UNL     1       9.237  -5.525  -3.764  0.00  0.00    +0.000 C 
ATOM      7  C   UNL     1      10.594  -5.979  -4.288  0.00  0.00    +0.000 C 
ATOM      8  C   UNL     1      11.649  -4.900  -4.094  0.00  0.00    +0.000 C 
ATOM      9  N   UNL     1      11.391  -3.775  -4.989  0.00  0.00    +0.000 NA
ATOM     10  C   UNL     1      11.398  -2.515  -4.231  0.00  0.00    +0.000 C 
ATOM     11  O   UNL     1      10.991  -7.147  -3.636  0.00  0.00    +0.000 OA
ATOM     12  C   UNL     2      11.141  -3.693  -3.358  0.00  0.00    +0.000 C 
ATOM     13  O   UNL     2      10.807  -2.996  -2.363  0.00  0.00    +0.000 OA
ATOM     14  O   UNL     2      10.289  -4.690  -3.816  0.00  0.00    +0.000 OA
ENDROOT
BRANCH  10  15
ATOM     15  C   UNL     1      12.781  -2.175  -3.671  0.00  0.00    +0.000 C 
BRANCH  15  16
ATOM     16  C   UNL     2      12.053  -1.291  -4.427  0.00  0.00    +0.000 C 
BRANCH  16  17
ATOM     17  O   UNL     2      12.251  -0.855  -5.592  0.00  0.00    +0.000 OA
BRANCH  17  19
ATOM     18  C   UNL     1      12.510  -0.798  -6.935  0.00  0.00    +0.000 C 
ATOM     19  C   UNL     1      11.341  -0.287  -6.087  0.00  0.00    +0.000 C 
ENDBRANCH  17  19
ENDBRANCH  16  17
ENDBRANCH  15  16
BRANCH  15  20
ATOM     20  O   UNL     2      13.130  -1.719  -3.661  0.00  0.00    +0.000 OA
BRANCH  20  21
ATOM     21  N   UNL     1      14.019  -2.267  -2.909  0.00  0.00    +0.000 NA
ATOM     22  C   UNL     1      14.390  -1.535  -1.731  0.00  0.00    +0.000 C 
ATOM     23  O   UNL     1      14.359  -0.276  -1.730  0.00  0.00    +0.000 OA
ATOM     24  C   UNL     1      14.825  -2.244  -0.493  0.00  0.00    +0.000 C 
ENDBRANCH  20  21
ENDBRANCH  15  20
ENDBRANCH  10  15
TORSDOF 6
ENDMDL
MODEL 7
REMARK minimizedAffinity -5.32228613
REMARK minimizedRMSD -1
REMARK  Name = imageData/pubchem/ligands/644380_decoys.pdb
REMARK  6 active torsions:
REMARK  status: ('A' for Active; 'I' for Inactive)
REMARK    1  A    between atoms: C_10  and  C_11
REMARK    2  A    between atoms: C_11  and  C_21
REMARK    3  A    between atoms: C_11  and  O_23
REMARK    4  A    between atoms: N_12  and  O_23
REMARK    5  A    between atoms: C_14  and  O_22
REMARK    6  A    between atoms: C_21  and  O_22
REMARK                            x       y       z     vdW  Elec       q    Type
REMARK                         _______ _______ _______ _____ _____    ______ ____
ROOT
ATOM      1  C   UNL     1      10.956  -7.022  -1.241  0.00  0.00    +0.000 C 
ATOM      2  C   UNL     1      11.050  -5.888  -0.238  0.00  0.00    +0.000 C 
ATOM      3  C   UNL     1      10.432  -6.295   1.091  0.00  0.00    +0.000 C 
ATOM      4  C   UNL     1       8.921  -6.123   1.071  0.00  0.00    +0.000 C 
ATOM      5  O   UNL     1       8.331  -7.142   0.320  0.00  0.00    +0.000 OA
ATOM      6  C   UNL     1       7.047  -6.671   0.035  0.00  0.00    +0.000 C 
ATOM      7  C   UNL     1       6.673  -6.971  -1.412  0.00  0.00    +0.000 C 
ATOM      8  C   UNL     1       7.595  -6.246  -2.381  0.00  0.00    +0.000 C 
ATOM      9  N   UNL     1       7.339  -4.808  -2.342  0.00  0.00    +0.000 NA
ATOM     10  C   UNL     1       8.600  -4.076  -2.157  0.00  0.00    +0.000 C 
ATOM     11  O   UNL     1       6.733  -8.345  -1.645  0.00  0.00    +0.000 OA
ATOM     12  C   UNL     2       8.702  -5.490  -1.702  0.00  0.00    +0.000 C 
ATOM     13  O   UNL     2       9.812  -5.322  -1.132  0.00  0.00    +0.000 OA
ATOM     14  O   UNL     2       7.642  -6.040  -0.993  0.00  0.00    +0.000 OA
ENDROOT
BRANCH  10  15
ATOM     15  C   UNL     1       9.537  -4.208  -3.360  0.00  0.00    +0.000 C 
BRANCH  15  16
ATOM     16  C   UNL     2       9.182  -2.993  -2.830  0.00  0.00    +0.000 C 
BRANCH  16  17
ATOM     17  O   UNL     2       9.895  -2.055  -2.385  0.00  0.00    +0.000 OA
BRANCH  17  19
ATOM     18  C   UNL     1      10.723  -0.987  -2.166  0.00  0.00    +0.000 C 
ATOM     19  C   UNL     1       9.445  -1.461  -1.468  0.00  0.00    +0.000 C 
ENDBRANCH  17  19
ENDBRANCH  16  17
ENDBRANCH  15  16
BRANCH  15  20
ATOM     20  O   UNL     2       9.846  -3.856  -3.692  0.00  0.00    +0.000 OA
BRANCH  20  21
ATOM     21  N   UNL     1      10.314  -4.787  -4.448  0.00  0.00    +0.000 NA
ATOM     22  C   UNL     1      11.740  -4.952  -4.440  0.00  0.00    +0.000 C 
ATOM     23  O   UNL     1      12.492  -3.960  -4.248  0.00  0.00    +0.000 OA
ATOM     24  C   UNL     1      12.359  -6.290  -4.667  0.00  0.00    +0.000 C 
ENDBRANCH  20  21
ENDBRANCH  15  20
ENDBRANCH  10  15
TORSDOF 6
ENDMDL
MODEL 8
REMARK minimizedAffinity -5.26712465
REMARK minimizedRMSD -1
REMARK  Name = imageData/pubchem/ligands/644380_decoys.pdb
REMARK  6 active torsions:
REMARK  status: ('A' for Active; 'I' for Inactive)
REMARK    1  A    between atoms: C_10  and  C_11
REMARK    2  A    between atoms: C_11  and  C_21
REMARK    3  A    between atoms: C_11  and  O_23
REMARK    4  A    between atoms: N_12  and  O_23
REMARK    5  A    between atoms: C_14  and  O_22
REMARK    6  A    between atoms: C_21  and  O_22
REMARK                            x       y       z     vdW  Elec       q    Type
REMARK                         _______ _______ _______ _____ _____    ______ ____
ROOT
ATOM      1  C   UNL     1      11.822  -1.388  -2.127  0.00  0.00    +0.000 C 
ATOM      2  C   UNL     1      12.868  -2.486  -2.100  0.00  0.00    +0.000 C 
ATOM      3  C   UNL     1      14.103  -2.071  -2.884  0.00  0.00    +0.000 C 
ATOM      4  C   UNL     1      13.917  -2.315  -4.373  0.00  0.00    +0.000 C 
ATOM      5  O   UNL     1      13.069  -1.348  -4.917  0.00  0.00    +0.000 OA
ATOM      6  C   UNL     1      12.656  -1.887  -6.137  0.00  0.00    +0.000 C 
ATOM      7  C   UNL     1      11.167  -1.648  -6.355  0.00  0.00    +0.000 C 
ATOM      8  C   UNL     1      10.334  -2.356  -5.297  0.00  0.00    +0.000 C 
ATOM      9  N   UNL     1      10.394  -3.803  -5.492  0.00  0.00    +0.000 NA
ATOM     10  C   UNL     1      10.746  -4.469  -4.229  0.00  0.00    +0.000 C 
ATOM     11  O   UNL     1      10.895  -0.280  -6.329  0.00  0.00    +0.000 OA
ATOM     12  C   UNL     2      11.160  -3.039  -4.243  0.00  0.00    +0.000 C 
ATOM     13  O   UNL     2      11.859  -3.137  -3.200  0.00  0.00    +0.000 OA
ATOM     14  O   UNL     2      11.725  -2.519  -5.401  0.00  0.00    +0.000 OA
ENDROOT
BRANCH  10  15
ATOM     15  C   UNL     1       9.654  -4.328  -3.167  0.00  0.00    +0.000 C 
BRANCH  15  16
ATOM     16  C   UNL     2      10.294  -5.516  -3.415  0.00  0.00    +0.000 C 
BRANCH  16  17
ATOM     17  O   UNL     2      10.991  -6.242  -2.658  0.00  0.00    +0.000 OA
BRANCH  17  19
ATOM     18  C   UNL     1      11.810  -6.708  -1.664  0.00  0.00    +0.000 C 
ATOM     19  C   UNL     1      11.851  -6.856  -3.188  0.00  0.00    +0.000 C 
ENDBRANCH  17  19
ENDBRANCH  16  17
ENDBRANCH  15  16
BRANCH  15  20
ATOM     20  O   UNL     2       9.410  -4.662  -2.769  0.00  0.00    +0.000 OA
BRANCH  20  21
ATOM     21  N   UNL     1       8.474  -3.829  -2.474  0.00  0.00    +0.000 NA
ATOM     22  C   UNL     1       8.715  -2.982  -1.340  0.00  0.00    +0.000 C 
ATOM     23  O   UNL     1       9.417  -3.393  -0.379  0.00  0.00    +0.000 OA
ATOM     24  C   UNL     1       8.135  -1.610  -1.271  0.00  0.00    +0.000 C 
ENDBRANCH  20  21
ENDBRANCH  15  20
ENDBRANCH  10  15
TORSDOF 6
ENDMDL
MODEL 9
REMARK minimizedAffinity -5.24432135
REMARK minimizedRMSD -1
REMARK  Name = imageData/pubchem/ligands/644380_decoys.pdb
REMARK  6 active torsions:
REMARK  status: ('A' for Active; 'I' for Inactive)
REMARK    1  A    between atoms: C_10  and  C_11
REMARK    2  A    between atoms: C_11  and  C_21
REMARK    3  A    between atoms: C_11  and  O_23
REMARK    4  A    between atoms: N_12  and  O_23
REMARK    5  A    between atoms: C_14  and  O_22
REMARK    6  A    between atoms: C_21  and  O_22
REMARK                            x       y       z     vdW  Elec       q    Type
REMARK                         _______ _______ _______ _____ _____    ______ ____
ROOT
ATOM      1  C   UNL     1      11.868  -6.117  -1.817  0.00  0.00    +0.000 C 
ATOM      2  C   UNL     1      11.176  -6.416  -3.134  0.00  0.00    +0.000 C 
ATOM      3  C   UNL     1      11.957  -5.823  -4.296  0.00  0.00    +0.000 C 
ATOM      4  C   UNL     1      11.631  -4.350  -4.485  0.00  0.00    +0.000 C 
ATOM      5  O   UNL     1      12.252  -3.589  -3.492  0.00  0.00    +0.000 OA
ATOM      6  C   UNL     1      11.579  -2.366  -3.513  0.00  0.00    +0.000 C 
ATOM      7  C   UNL     1      11.309  -1.876  -2.096  0.00  0.00    +0.000 C 
ATOM      8  C   UNL     1      10.390  -2.831  -1.348  0.00  0.00    +0.000 C 
ATOM      9  N   UNL     1       9.040  -2.771  -1.902  0.00  0.00    +0.000 NA
ATOM     10  C   UNL     1       8.557  -4.126  -2.202  0.00  0.00    +0.000 C 
ATOM     11  O   UNL     1      12.511  -1.739  -1.402  0.00  0.00    +0.000 OA
ATOM     12  C   UNL     2      10.043  -4.064  -2.133  0.00  0.00    +0.000 C 
ATOM     13  O   UNL     2      10.204  -5.216  -2.614  0.00  0.00    +0.000 OA
ATOM     14  O   UNL     2      10.693  -2.981  -2.710  0.00  0.00    +0.000 OA
ENDROOT
BRANCH  10  15
ATOM     15  C   UNL     1       8.354  -4.969  -0.941  0.00  0.00    +0.000 C 
BRANCH  15  16
ATOM     16  C   UNL     2       7.475  -4.992  -1.994  0.00  0.00    +0.000 C 
BRANCH  16  17
ATOM     17  O   UNL     2       6.931  -5.963  -2.584  0.00  0.00    +0.000 OA
BRANCH  17  19
ATOM     18  C   UNL     1       6.080  -6.944  -3.017  0.00  0.00    +0.000 C 
ATOM     19  C   UNL     1       6.916  -5.900  -3.764  0.00  0.00    +0.000 C 
ENDBRANCH  17  19
ENDBRANCH  16  17
ENDBRANCH  15  16
BRANCH  15  20
ATOM     20  O   UNL     2       7.982  -5.364  -0.755  0.00  0.00    +0.000 OA
BRANCH  20  21
ATOM     21  N   UNL     1       8.484  -5.457   0.425  0.00  0.00    +0.000 NA
ATOM     22  C   UNL     1       9.218  -6.658   0.709  0.00  0.00    +0.000 C 
ATOM     23  O   UNL     1       8.897  -7.742   0.154  0.00  0.00    +0.000 OA
ATOM     24  C   UNL     1      10.361  -6.651   1.667  0.00  0.00    +0.000 C 
ENDBRANCH  20  21
ENDBRANCH  15  20
ENDBRANCH  10  15
TORSDOF 6
ENDMDL
