MODEL 1
REMARK minimizedAffinity -6.60571337
REMARK minimizedRMSD -1
REMARK  Name = imageData/pubchem/ligands/644392_decoys.pdb
REMARK  4 active torsions:
REMARK  status: ('A' for Active; 'I' for Inactive)
REMARK    1  A    between atoms: C_6  and  C_18
REMARK    2  A    between atoms: N_9  and  C_10
REMARK    3  A    between atoms: C_12  and  O_16
REMARK    4  A    between atoms: N_20  and  C_21
REMARK                            x       y       z     vdW  Elec       q    Type
REMARK                         _______ _______ _______ _____ _____    ______ ____
ROOT
ATOM      1  C   UNL     1      18.679  11.502  -4.732  0.00  0.00    +0.000 C 
ATOM      2  N   UNL     1      18.399  10.945  -6.050  0.00  0.00    +0.000 N 
ATOM      3  C   UNL     1      18.643  11.754  -7.221  0.00  0.00    +0.000 C 
ATOM      4  O   UNL     1      19.009  12.951  -7.089  0.00  0.00    +0.000 OA
ATOM      5  C   UNL     1      18.439  11.227  -8.615  0.00  0.00    +0.000 C 
ATOM      6  C   UNL     1      18.457   9.705  -8.677  0.00  0.00    +0.000 C 
ATOM      7  S   UNL     1      17.115   9.061  -7.644  0.00  0.00    +0.000 S 
ATOM      8  C   UNL     1      18.007   9.567  -6.166  0.00  0.00    +0.000 C 
ATOM      9  N   UNL     1      18.307   8.734  -5.206  0.00  0.00    +0.000 NA
ENDROOT
BRANCH   9  10
ATOM     10  C   UNL     1      18.085   7.316  -5.125  0.00  0.00    +0.000 A 
ATOM     11  C   UNL     1      17.726   6.772  -3.887  0.00  0.00    +0.000 A 
ATOM     12  C   UNL     1      17.544   5.386  -3.736  0.00  0.00    +0.000 A 
ATOM     13  C   UNL     1      17.741   4.545  -4.835  0.00  0.00    +0.000 A 
ATOM     14  C   UNL     1      18.120   5.076  -6.070  0.00  0.00    +0.000 A 
ATOM     15  C   UNL     1      18.297   6.454  -6.212  0.00  0.00    +0.000 A 
BRANCH  12  16
ATOM     16  O   UNL     1      17.173   4.826  -2.511  0.00  0.00    +0.000 OA
ATOM     17  C   UNL     1      17.542   5.395  -1.262  0.00  0.00    +0.000 C 
ENDBRANCH  12  16
ENDBRANCH   9  10
BRANCH   6  18
ATOM     18  C   UNL     1      18.300   9.232 -10.083  0.00  0.00    +0.000 C 
ATOM     19  O   UNL     1      19.317   8.927 -10.765  0.00  0.00    +0.000 OA
ATOM     20  N   UNL     1      16.982   9.150 -10.640  0.00  0.00    +0.000 NA
BRANCH  20  21
ATOM     21  C   UNL     1      16.634   8.733 -11.970  0.00  0.00    +0.000 A 
ATOM     22  C   UNL     1      16.389   9.661 -12.994  0.00  0.00    +0.000 A 
ATOM     23  C   UNL     1      16.052   9.227 -14.278  0.00  0.00    +0.000 A 
ATOM     24  C   UNL     1      15.958   7.861 -14.550  0.00  0.00    +0.000 A 
ATOM     25  C   UNL     1      16.200   6.928 -13.538  0.00  0.00    +0.000 A 
ATOM     26  C   UNL     1      16.537   7.362 -12.252  0.00  0.00    +0.000 A 
ATOM     27  F   UNL     1      16.769   6.444 -11.280  0.00  0.00    +0.000 F 
ENDBRANCH  20  21
ENDBRANCH   6  18
TORSDOF 4
ENDMDL
MODEL 2
REMARK minimizedAffinity -6.42793989
REMARK minimizedRMSD -1
REMARK  Name = imageData/pubchem/ligands/644392_decoys.pdb
REMARK  4 active torsions:
REMARK  status: ('A' for Active; 'I' for Inactive)
REMARK    1  A    between atoms: C_6  and  C_18
REMARK    2  A    between atoms: N_9  and  C_10
REMARK    3  A    between atoms: C_12  and  O_16
REMARK    4  A    between atoms: N_20  and  C_21
REMARK                            x       y       z     vdW  Elec       q    Type
REMARK                         _______ _______ _______ _____ _____    ______ ____
ROOT
ATOM      1  C   UNL     1      13.082  -0.740  -7.716  0.00  0.00    +0.000 C 
ATOM      2  N   UNL     1      12.844  -1.265  -6.377  0.00  0.00    +0.000 N 
ATOM      3  C   UNL     1      11.757  -0.727  -5.595  0.00  0.00    +0.000 C 
ATOM      4  O   UNL     1      11.085   0.242  -6.040  0.00  0.00    +0.000 OA
ATOM      5  C   UNL     1      11.409  -1.260  -4.232  0.00  0.00    +0.000 C 
ATOM      6  C   UNL     1      11.941  -2.669  -3.999  0.00  0.00    +0.000 C 
ATOM      7  S   UNL     1      13.748  -2.643  -4.136  0.00  0.00    +0.000 S 
ATOM      8  C   UNL     1      13.612  -2.386  -5.911  0.00  0.00    +0.000 C 
ATOM      9  N   UNL     1      14.181  -3.177  -6.781  0.00  0.00    +0.000 NA
ENDROOT
BRANCH   9  10
ATOM     10  C   UNL     1      14.931  -4.384  -6.564  0.00  0.00    +0.000 A 
ATOM     11  C   UNL     1      14.226  -5.567  -6.316  0.00  0.00    +0.000 A 
ATOM     12  C   UNL     1      14.905  -6.768  -6.048  0.00  0.00    +0.000 A 
ATOM     13  C   UNL     1      16.303  -6.772  -6.015  0.00  0.00    +0.000 A 
ATOM     14  C   UNL     1      17.016  -5.592  -6.240  0.00  0.00    +0.000 A 
ATOM     15  C   UNL     1      16.333  -4.403  -6.507  0.00  0.00    +0.000 A 
BRANCH  12  16
ATOM     16  O   UNL     1      14.219  -7.961  -5.811  0.00  0.00    +0.000 OA
ATOM     17  C   UNL     1      14.875  -9.216  -5.698  0.00  0.00    +0.000 C 
ENDBRANCH  12  16
ENDBRANCH   9  10
BRANCH   6  18
ATOM     18  C   UNL     1      11.531  -3.172  -2.657  0.00  0.00    +0.000 C 
ATOM     19  O   UNL     1      11.909  -2.572  -1.613  0.00  0.00    +0.000 OA
ATOM     20  N   UNL     1      10.718  -4.350  -2.580  0.00  0.00    +0.000 NA
BRANCH  20  21
ATOM     21  C   UNL     1      10.236  -4.988  -1.387  0.00  0.00    +0.000 A 
ATOM     22  C   UNL     1       8.931  -4.781  -0.914  0.00  0.00    +0.000 A 
ATOM     23  C   UNL     1       8.490  -5.415   0.249  0.00  0.00    +0.000 A 
ATOM     24  C   UNL     1       9.348  -6.264   0.950  0.00  0.00    +0.000 A 
ATOM     25  C   UNL     1      10.650  -6.478   0.487  0.00  0.00    +0.000 A 
ATOM     26  C   UNL     1      11.093  -5.843  -0.677  0.00  0.00    +0.000 A 
ATOM     27  F   UNL     1      12.359  -6.061  -1.113  0.00  0.00    +0.000 F 
ENDBRANCH  20  21
ENDBRANCH   6  18
TORSDOF 4
ENDMDL
MODEL 3
REMARK minimizedAffinity -6.38239956
REMARK minimizedRMSD -1
REMARK  Name = imageData/pubchem/ligands/644392_decoys.pdb
REMARK  4 active torsions:
REMARK  status: ('A' for Active; 'I' for Inactive)
REMARK    1  A    between atoms: C_6  and  C_18
REMARK    2  A    between atoms: N_9  and  C_10
REMARK    3  A    between atoms: C_12  and  O_16
REMARK    4  A    between atoms: N_20  and  C_21
REMARK                            x       y       z     vdW  Elec       q    Type
REMARK                         _______ _______ _______ _____ _____    ______ ____
ROOT
ATOM      1  C   UNL     1      12.954  -0.951  -7.475  0.00  0.00    +0.000 C 
ATOM      2  N   UNL     1      12.592  -1.432  -6.147  0.00  0.00    +0.000 N 
ATOM      3  C   UNL     1      11.577  -0.730  -5.398  0.00  0.00    +0.000 C 
ATOM      4  O   UNL     1      11.081   0.331  -5.859  0.00  0.00    +0.000 OA
ATOM      5  C   UNL     1      11.106  -1.203  -4.050  0.00  0.00    +0.000 C 
ATOM      6  C   UNL     1      11.403  -2.678  -3.807  0.00  0.00    +0.000 C 
ATOM      7  S   UNL     1      13.195  -2.935  -3.884  0.00  0.00    +0.000 S 
ATOM      8  C   UNL     1      13.159  -2.660  -5.662  0.00  0.00    +0.000 C 
ATOM      9  N   UNL     1      13.626  -3.530  -6.517  0.00  0.00    +0.000 NA
ENDROOT
BRANCH   9  10
ATOM     10  C   UNL     1      14.171  -4.840  -6.282  0.00  0.00    +0.000 A 
ATOM     11  C   UNL     1      15.537  -5.039  -6.506  0.00  0.00    +0.000 A 
ATOM     12  C   UNL     1      16.117  -6.308  -6.340  0.00  0.00    +0.000 A 
ATOM     13  C   UNL     1      15.310  -7.386  -5.961  0.00  0.00    +0.000 A 
ATOM     14  C   UNL     1      13.941  -7.203  -5.755  0.00  0.00    +0.000 A 
ATOM     15  C   UNL     1      13.374  -5.937  -5.921  0.00  0.00    +0.000 A 
BRANCH  12  16
ATOM     16  O   UNL     1      17.481  -6.524  -6.547  0.00  0.00    +0.000 OA
ATOM     17  C   UNL     1      18.110  -6.316  -7.804  0.00  0.00    +0.000 C 
ENDBRANCH  12  16
ENDBRANCH   9  10
BRANCH   6  18
ATOM     18  C   UNL     1      10.874  -3.111  -2.481  0.00  0.00    +0.000 C 
ATOM     19  O   UNL     1      10.724  -2.268  -1.554  0.00  0.00    +0.000 OA
ATOM     20  N   UNL     1      10.559  -4.494  -2.282  0.00  0.00    +0.000 NA
BRANCH  20  21
ATOM     21  C   UNL     1      10.055  -5.099  -1.081  0.00  0.00    +0.000 A 
ATOM     22  C   UNL     1      10.906  -5.730  -0.160  0.00  0.00    +0.000 A 
ATOM     23  C   UNL     1      10.388  -6.309   1.001  0.00  0.00    +0.000 A 
ATOM     24  C   UNL     1       9.015  -6.262   1.252  0.00  0.00    +0.000 A 
ATOM     25  C   UNL     1       8.160  -5.637   0.341  0.00  0.00    +0.000 A 
ATOM     26  C   UNL     1       8.677  -5.057  -0.822  0.00  0.00    +0.000 A 
ATOM     27  F   UNL     1       7.834  -4.453  -1.695  0.00  0.00    +0.000 F 
ENDBRANCH  20  21
ENDBRANCH   6  18
TORSDOF 4
ENDMDL
MODEL 4
REMARK minimizedAffinity -6.34759331
REMARK minimizedRMSD -1
REMARK  Name = imageData/pubchem/ligands/644392_decoys.pdb
REMARK  4 active torsions:
REMARK  status: ('A' for Active; 'I' for Inactive)
REMARK    1  A    between atoms: C_6  and  C_18
REMARK    2  A    between atoms: N_9  and  C_10
REMARK    3  A    between atoms: C_12  and  O_16
REMARK    4  A    between atoms: N_20  and  C_21
REMARK                            x       y       z     vdW  Elec       q    Type
REMARK                         _______ _______ _______ _____ _____    ______ ____
ROOT
ATOM      1  C   UNL     1      15.011  -1.583  -1.934  0.00  0.00    +0.000 C 
ATOM      2  N   UNL     1      13.681  -2.176  -1.878  0.00  0.00    +0.000 N 
ATOM      3  C   UNL     1      13.127  -2.538  -0.595  0.00  0.00    +0.000 C 
ATOM      4  O   UNL     1      13.826  -2.418   0.445  0.00  0.00    +0.000 OA
ATOM      5  C   UNL     1      11.737  -3.095  -0.451  0.00  0.00    +0.000 C 
ATOM      6  C   UNL     1      10.846  -2.769  -1.643  0.00  0.00    +0.000 C 
ATOM      7  S   UNL     1      11.577  -3.493  -3.135  0.00  0.00    +0.000 S 
ATOM      8  C   UNL     1      12.899  -2.275  -3.080  0.00  0.00    +0.000 C 
ATOM      9  N   UNL     1      13.170  -1.486  -4.085  0.00  0.00    +0.000 NA
ENDROOT
BRANCH   9  10
ATOM     10  C   UNL     1      12.497  -1.351  -5.347  0.00  0.00    +0.000 A 
ATOM     11  C   UNL     1      13.010  -2.045  -6.449  0.00  0.00    +0.000 A 
ATOM     12  C   UNL     1      12.423  -1.914  -7.719  0.00  0.00    +0.000 A 
ATOM     13  C   UNL     1      11.323  -1.066  -7.882  0.00  0.00    +0.000 A 
ATOM     14  C   UNL     1      10.816  -0.353  -6.794  0.00  0.00    +0.000 A 
ATOM     15  C   UNL     1      11.404  -0.490  -5.534  0.00  0.00    +0.000 A 
BRANCH  12  16
ATOM     16  O   UNL     1      12.913  -2.608  -8.828  0.00  0.00    +0.000 OA
ATOM     17  C   UNL     1      12.310  -2.528 -10.112  0.00  0.00    +0.000 C 
ENDBRANCH  12  16
ENDBRANCH   9  10
BRANCH   6  18
ATOM     18  C   UNL     1       9.468  -3.299  -1.432  0.00  0.00    +0.000 C 
ATOM     19  O   UNL     1       8.514  -2.507  -1.197  0.00  0.00    +0.000 OA
ATOM     20  N   UNL     1       9.257  -4.715  -1.486  0.00  0.00    +0.000 NA
BRANCH  20  21
ATOM     21  C   UNL     1       8.014  -5.409  -1.298  0.00  0.00    +0.000 A 
ATOM     22  C   UNL     1       7.120  -5.623  -2.358  0.00  0.00    +0.000 A 
ATOM     23  C   UNL     1       5.918  -6.303  -2.146  0.00  0.00    +0.000 A 
ATOM     24  C   UNL     1       5.600  -6.775  -0.871  0.00  0.00    +0.000 A 
ATOM     25  C   UNL     1       6.483  -6.567   0.192  0.00  0.00    +0.000 A 
ATOM     26  C   UNL     1       7.686  -5.886  -0.020  0.00  0.00    +0.000 A 
ATOM     27  F   UNL     1       8.533  -5.693   1.022  0.00  0.00    +0.000 F 
ENDBRANCH  20  21
ENDBRANCH   6  18
TORSDOF 4
ENDMDL
MODEL 5
REMARK minimizedAffinity -6.25131369
REMARK minimizedRMSD -1
REMARK  Name = imageData/pubchem/ligands/644392_decoys.pdb
REMARK  4 active torsions:
REMARK  status: ('A' for Active; 'I' for Inactive)
REMARK    1  A    between atoms: C_6  and  C_18
REMARK    2  A    between atoms: N_9  and  C_10
REMARK    3  A    between atoms: C_12  and  O_16
REMARK    4  A    between atoms: N_20  and  C_21
REMARK                            x       y       z     vdW  Elec       q    Type
REMARK                         _______ _______ _______ _____ _____    ______ ____
ROOT
ATOM      1  C   UNL     1      13.922  -2.317   0.095  0.00  0.00    +0.000 C 
ATOM      2  N   UNL     1      13.179  -2.410  -1.156  0.00  0.00    +0.000 N 
ATOM      3  C   UNL     1      13.722  -1.793  -2.343  0.00  0.00    +0.000 C 
ATOM      4  O   UNL     1      14.779  -1.113  -2.267  0.00  0.00    +0.000 OA
ATOM      5  C   UNL     1      13.045  -1.900  -3.682  0.00  0.00    +0.000 C 
ATOM      6  C   UNL     1      12.083  -3.079  -3.763  0.00  0.00    +0.000 C 
ATOM      7  S   UNL     1      10.792  -2.867  -2.510  0.00  0.00    +0.000 S 
ATOM      8  C   UNL     1      11.990  -3.214  -1.214  0.00  0.00    +0.000 C 
ATOM      9  N   UNL     1      11.817  -4.163  -0.333  0.00  0.00    +0.000 NA
ENDROOT
BRANCH   9  10
ATOM     10  C   UNL     1      10.758  -5.130  -0.228  0.00  0.00    +0.000 A 
ATOM     11  C   UNL     1      10.825  -6.275  -1.029  0.00  0.00    +0.000 A 
ATOM     12  C   UNL     1       9.795  -7.231  -1.006  0.00  0.00    +0.000 A 
ATOM     13  C   UNL     1       8.685  -7.023  -0.182  0.00  0.00    +0.000 A 
ATOM     14  C   UNL     1       8.598  -5.873   0.606  0.00  0.00    +0.000 A 
ATOM     15  C   UNL     1       9.627  -4.929   0.578  0.00  0.00    +0.000 A 
BRANCH  12  16
ATOM     16  O   UNL     1       9.851  -8.387  -1.789  0.00  0.00    +0.000 OA
ATOM     17  C   UNL     1      10.839  -8.590  -2.789  0.00  0.00    +0.000 C 
ENDBRANCH  12  16
ENDBRANCH   9  10
BRANCH   6  18
ATOM     18  C   UNL     1      11.476  -3.172  -5.122  0.00  0.00    +0.000 C 
ATOM     19  O   UNL     1      11.885  -4.042  -5.940  0.00  0.00    +0.000 OA
ATOM     20  N   UNL     1      10.439  -2.250  -5.479  0.00  0.00    +0.000 NA
BRANCH  20  21
ATOM     21  C   UNL     1       9.747  -2.176  -6.735  0.00  0.00    +0.000 A 
ATOM     22  C   UNL     1       8.475  -2.744  -6.912  0.00  0.00    +0.000 A 
ATOM     23  C   UNL     1       7.825  -2.656  -8.145  0.00  0.00    +0.000 A 
ATOM     24  C   UNL     1       8.440  -1.999  -9.213  0.00  0.00    +0.000 A 
ATOM     25  C   UNL     1       9.706  -1.431  -9.047  0.00  0.00    +0.000 A 
ATOM     26  C   UNL     1      10.358  -1.519  -7.813  0.00  0.00    +0.000 A 
ATOM     27  F   UNL     1      11.586  -0.962  -7.669  0.00  0.00    +0.000 F 
ENDBRANCH  20  21
ENDBRANCH   6  18
TORSDOF 4
ENDMDL
MODEL 6
REMARK minimizedAffinity -6.16107607
REMARK minimizedRMSD -1
REMARK  Name = imageData/pubchem/ligands/644392_decoys.pdb
REMARK  4 active torsions:
REMARK  status: ('A' for Active; 'I' for Inactive)
REMARK    1  A    between atoms: C_6  and  C_18
REMARK    2  A    between atoms: N_9  and  C_10
REMARK    3  A    between atoms: C_12  and  O_16
REMARK    4  A    between atoms: N_20  and  C_21
REMARK                            x       y       z     vdW  Elec       q    Type
REMARK                         _______ _______ _______ _____ _____    ______ ____
ROOT
ATOM      1  C   UNL     1      11.323  -0.219  -6.395  0.00  0.00    +0.000 C 
ATOM      2  N   UNL     1      12.383  -1.217  -6.482  0.00  0.00    +0.000 N 
ATOM      3  C   UNL     1      13.052  -1.422  -7.745  0.00  0.00    +0.000 C 
ATOM      4  O   UNL     1      12.659  -0.804  -8.769  0.00  0.00    +0.000 OA
ATOM      5  C   UNL     1      14.196  -2.387  -7.897  0.00  0.00    +0.000 C 
ATOM      6  C   UNL     1      14.874  -2.710  -6.571  0.00  0.00    +0.000 C 
ATOM      7  S   UNL     1      13.658  -3.470  -5.463  0.00  0.00    +0.000 S 
ATOM      8  C   UNL     1      12.824  -1.885  -5.289  0.00  0.00    +0.000 C 
ATOM      9  N   UNL     1      12.608  -1.328  -4.128  0.00  0.00    +0.000 NA
ENDROOT
BRANCH   9  10
ATOM     10  C   UNL     1      13.010  -1.763  -2.818  0.00  0.00    +0.000 A 
ATOM     11  C   UNL     1      12.125  -2.563  -2.085  0.00  0.00    +0.000 A 
ATOM     12  C   UNL     1      12.442  -2.979  -0.781  0.00  0.00    +0.000 A 
ATOM     13  C   UNL     1      13.650  -2.572  -0.206  0.00  0.00    +0.000 A 
ATOM     14  C   UNL     1      14.531  -1.756  -0.920  0.00  0.00    +0.000 A 
ATOM     15  C   UNL     1      14.208  -1.349  -2.217  0.00  0.00    +0.000 A 
BRANCH  12  16
ATOM     16  O   UNL     1      11.578  -3.787  -0.039  0.00  0.00    +0.000 OA
ATOM     17  C   UNL     1      10.165  -3.640  -0.078  0.00  0.00    +0.000 C 
ENDBRANCH  12  16
ENDBRANCH   9  10
BRANCH   6  18
ATOM     18  C   UNL     1      16.029  -3.629  -6.780  0.00  0.00    +0.000 C 
ATOM     19  O   UNL     1      17.185  -3.288  -6.407  0.00  0.00    +0.000 OA
ATOM     20  N   UNL     1      15.801  -4.890  -7.422  0.00  0.00    +0.000 NA
BRANCH  20  21
ATOM     21  C   UNL     1      16.782  -5.895  -7.720  0.00  0.00    +0.000 A 
ATOM     22  C   UNL     1      17.626  -5.795  -8.837  0.00  0.00    +0.000 A 
ATOM     23  C   UNL     1      18.572  -6.788  -9.102  0.00  0.00    +0.000 A 
ATOM     24  C   UNL     1      18.684  -7.890  -8.252  0.00  0.00    +0.000 A 
ATOM     25  C   UNL     1      17.848  -7.999  -7.137  0.00  0.00    +0.000 A 
ATOM     26  C   UNL     1      16.900  -7.006  -6.871  0.00  0.00    +0.000 A 
ATOM     27  F   UNL     1      16.098  -7.127  -5.785  0.00  0.00    +0.000 F 
ENDBRANCH  20  21
ENDBRANCH   6  18
TORSDOF 4
ENDMDL
MODEL 7
REMARK minimizedAffinity -6.13366318
REMARK minimizedRMSD -1
REMARK  Name = imageData/pubchem/ligands/644392_decoys.pdb
REMARK  4 active torsions:
REMARK  status: ('A' for Active; 'I' for Inactive)
REMARK    1  A    between atoms: C_6  and  C_18
REMARK    2  A    between atoms: N_9  and  C_10
REMARK    3  A    between atoms: C_12  and  O_16
REMARK    4  A    between atoms: N_20  and  C_21
REMARK                            x       y       z     vdW  Elec       q    Type
REMARK                         _______ _______ _______ _____ _____    ______ ____
ROOT
ATOM      1  C   UNL     1       7.664 -10.813  13.937  0.00  0.00    +0.000 C 
ATOM      2  N   UNL     1       7.501 -10.710  12.492  0.00  0.00    +0.000 N 
ATOM      3  C   UNL     1       6.321 -11.267  11.877  0.00  0.00    +0.000 C 
ATOM      4  O   UNL     1       5.493 -11.908  12.576  0.00  0.00    +0.000 OA
ATOM      5  C   UNL     1       6.052 -11.144  10.401  0.00  0.00    +0.000 C 
ATOM      6  C   UNL     1       6.827 -10.001   9.756  0.00  0.00    +0.000 C 
ATOM      7  S   UNL     1       8.601 -10.302   9.969  0.00  0.00    +0.000 S 
ATOM      8  C   UNL     1       8.452  -9.950  11.727  0.00  0.00    +0.000 C 
ATOM      9  N   UNL     1       9.170  -9.038  12.325  0.00  0.00    +0.000 NA
ENDROOT
BRANCH   9  10
ATOM     10  C   UNL     1      10.123  -8.116  11.768  0.00  0.00    +0.000 A 
ATOM     11  C   UNL     1       9.641  -7.038  11.018  0.00  0.00    +0.000 A 
ATOM     12  C   UNL     1      10.526  -6.132  10.408  0.00  0.00    +0.000 A 
ATOM     13  C   UNL     1      11.904  -6.325  10.543  0.00  0.00    +0.000 A 
ATOM     14  C   UNL     1      12.396  -7.410  11.272  0.00  0.00    +0.000 A 
ATOM     15  C   UNL     1      11.509  -8.304  11.876  0.00  0.00    +0.000 A 
BRANCH  12  16
ATOM     16  O   UNL     1      10.063  -5.043   9.667  0.00  0.00    +0.000 OA
ATOM     17  C   UNL     1       8.736  -4.547   9.774  0.00  0.00    +0.000 C 
ENDBRANCH  12  16
ENDBRANCH   9  10
BRANCH   6  18
ATOM     18  C   UNL     1       6.491  -9.888   8.308  0.00  0.00    +0.000 C 
ATOM     19  O   UNL     1       7.116  -9.073   7.575  0.00  0.00    +0.000 OA
ATOM     20  N   UNL     1       5.442 -10.707   7.777  0.00  0.00    +0.000 NA
BRANCH  20  21
ATOM     21  C   UNL     1       4.970 -10.730   6.421  0.00  0.00    +0.000 A 
ATOM     22  C   UNL     1       3.807 -10.047   6.032  0.00  0.00    +0.000 A 
ATOM     23  C   UNL     1       3.372 -10.087   4.705  0.00  0.00    +0.000 A 
ATOM     24  C   UNL     1       4.096 -10.810   3.755  0.00  0.00    +0.000 A 
ATOM     25  C   UNL     1       5.255 -11.494   4.132  0.00  0.00    +0.000 A 
ATOM     26  C   UNL     1       5.691 -11.455   5.460  0.00  0.00    +0.000 A 
ATOM     27  F   UNL     1       6.818 -12.124   5.809  0.00  0.00    +0.000 F 
ENDBRANCH  20  21
ENDBRANCH   6  18
TORSDOF 4
ENDMDL
MODEL 8
REMARK minimizedAffinity -6.1013689
REMARK minimizedRMSD -1
REMARK  Name = imageData/pubchem/ligands/644392_decoys.pdb
REMARK  4 active torsions:
REMARK  status: ('A' for Active; 'I' for Inactive)
REMARK    1  A    between atoms: C_6  and  C_18
REMARK    2  A    between atoms: N_9  and  C_10
REMARK    3  A    between atoms: C_12  and  O_16
REMARK    4  A    between atoms: N_20  and  C_21
REMARK                            x       y       z     vdW  Elec       q    Type
REMARK                         _______ _______ _______ _____ _____    ______ ____
ROOT
ATOM      1  C   UNL     1     -11.856  -0.951  13.386  0.00  0.00    +0.000 C 
ATOM      2  N   UNL     1     -10.820  -0.908  12.361  0.00  0.00    +0.000 N 
ATOM      3  C   UNL     1     -10.177  -2.136  11.960  0.00  0.00    +0.000 C 
ATOM      4  O   UNL     1     -10.454  -3.211  12.555  0.00  0.00    +0.000 OA
ATOM      5  C   UNL     1      -9.146  -2.180  10.865  0.00  0.00    +0.000 C 
ATOM      6  C   UNL     1      -9.227  -0.978   9.932  0.00  0.00    +0.000 C 
ATOM      7  S   UNL     1      -8.943   0.530  10.895  0.00  0.00    +0.000 S 
ATOM      8  C   UNL     1     -10.546   0.331  11.684  0.00  0.00    +0.000 C 
ATOM      9  N   UNL     1     -11.461   1.263  11.663  0.00  0.00    +0.000 NA
ENDROOT
BRANCH   9  10
ATOM     10  C   UNL     1     -11.449   2.540  11.003  0.00  0.00    +0.000 A 
ATOM     11  C   UNL     1     -11.015   3.655  11.727  0.00  0.00    +0.000 A 
ATOM     12  C   UNL     1     -11.026   4.937  11.151  0.00  0.00    +0.000 A 
ATOM     13  C   UNL     1     -11.493   5.096   9.842  0.00  0.00    +0.000 A 
ATOM     14  C   UNL     1     -11.948   3.992   9.118  0.00  0.00    +0.000 A 
ATOM     15  C   UNL     1     -11.931   2.721   9.698  0.00  0.00    +0.000 A 
BRANCH  12  16
ATOM     16  O   UNL     1     -10.585   6.061  11.853  0.00  0.00    +0.000 OA
ATOM     17  C   UNL     1     -10.620   6.143  13.272  0.00  0.00    +0.000 C 
ENDBRANCH  12  16
ENDBRANCH   9  10
BRANCH   6  18
ATOM     18  C   UNL     1      -8.220  -1.092   8.838  0.00  0.00    +0.000 C 
ATOM     19  O   UNL     1      -7.421  -0.142   8.612  0.00  0.00    +0.000 OA
ATOM     20  N   UNL     1      -8.193  -2.286   8.046  0.00  0.00    +0.000 NA
BRANCH  20  21
ATOM     21  C   UNL     1      -7.311  -2.572   6.950  0.00  0.00    +0.000 A 
ATOM     22  C   UNL     1      -6.107  -3.270   7.133  0.00  0.00    +0.000 A 
ATOM     23  C   UNL     1      -5.269  -3.536   6.048  0.00  0.00    +0.000 A 
ATOM     24  C   UNL     1      -5.627  -3.106   4.768  0.00  0.00    +0.000 A 
ATOM     25  C   UNL     1      -6.824  -2.411   4.575  0.00  0.00    +0.000 A 
ATOM     26  C   UNL     1      -7.663  -2.144   5.661  0.00  0.00    +0.000 A 
ATOM     27  F   UNL     1      -8.821  -1.469   5.456  0.00  0.00    +0.000 F 
ENDBRANCH  20  21
ENDBRANCH   6  18
TORSDOF 4
ENDMDL
MODEL 9
REMARK minimizedAffinity -6.08363342
REMARK minimizedRMSD -1
REMARK  Name = imageData/pubchem/ligands/644392_decoys.pdb
REMARK  4 active torsions:
REMARK  status: ('A' for Active; 'I' for Inactive)
REMARK    1  A    between atoms: C_6  and  C_18
REMARK    2  A    between atoms: N_9  and  C_10
REMARK    3  A    between atoms: C_12  and  O_16
REMARK    4  A    between atoms: N_20  and  C_21
REMARK                            x       y       z     vdW  Elec       q    Type
REMARK                         _______ _______ _______ _____ _____    ______ ____
ROOT
ATOM      1  C   UNL     1       6.236 -11.046  10.950  0.00  0.00    +0.000 C 
ATOM      2  N   UNL     1       6.605  -9.639  11.044  0.00  0.00    +0.000 N 
ATOM      3  C   UNL     1       7.979  -9.257  10.820  0.00  0.00    +0.000 C 
ATOM      4  O   UNL     1       8.853 -10.144  10.634  0.00  0.00    +0.000 OA
ATOM      5  C   UNL     1       8.424  -7.820  10.836  0.00  0.00    +0.000 C 
ATOM      6  C   UNL     1       7.275  -6.846  10.604  0.00  0.00    +0.000 C 
ATOM      7  S   UNL     1       6.052  -7.058  11.924  0.00  0.00    +0.000 S 
ATOM      8  C   UNL     1       5.579  -8.650  11.232  0.00  0.00    +0.000 C 
ATOM      9  N   UNL     1       4.349  -8.935  10.899  0.00  0.00    +0.000 NA
ENDROOT
BRANCH   9  10
ATOM     10  C   UNL     1       3.179  -8.100  10.929  0.00  0.00    +0.000 A 
ATOM     11  C   UNL     1       2.544  -7.805   9.718  0.00  0.00    +0.000 A 
ATOM     12  C   UNL     1       1.425  -6.955   9.679  0.00  0.00    +0.000 A 
ATOM     13  C   UNL     1       0.955  -6.387  10.866  0.00  0.00    +0.000 A 
ATOM     14  C   UNL     1       1.593  -6.658  12.079  0.00  0.00    +0.000 A 
ATOM     15  C   UNL     1       2.704  -7.505  12.108  0.00  0.00    +0.000 A 
BRANCH  12  16
ATOM     16  O   UNL     1       0.771  -6.660   8.481  0.00  0.00    +0.000 OA
ATOM     17  C   UNL     1      -0.609  -6.928   8.272  0.00  0.00    +0.000 C 
ENDBRANCH  12  16
ENDBRANCH   9  10
BRANCH   6  18
ATOM     18  C   UNL     1       7.773  -5.440  10.580  0.00  0.00    +0.000 C 
ATOM     19  O   UNL     1       8.568  -5.065   9.675  0.00  0.00    +0.000 OA
ATOM     20  N   UNL     1       7.343  -4.539  11.607  0.00  0.00    +0.000 NA
BRANCH  20  21
ATOM     21  C   UNL     1       7.721  -3.161  11.758  0.00  0.00    +0.000 A 
ATOM     22  C   UNL     1       8.625  -2.748  12.749  0.00  0.00    +0.000 A 
ATOM     23  C   UNL     1       8.975  -1.402  12.873  0.00  0.00    +0.000 A 
ATOM     24  C   UNL     1       8.424  -0.456  12.006  0.00  0.00    +0.000 A 
ATOM     25  C   UNL     1       7.523  -0.856  11.016  0.00  0.00    +0.000 A 
ATOM     26  C   UNL     1       7.171  -2.204  10.892  0.00  0.00    +0.000 A 
ATOM     27  F   UNL     1       6.295  -2.577   9.926  0.00  0.00    +0.000 F 
ENDBRANCH  20  21
ENDBRANCH   6  18
TORSDOF 4
ENDMDL
