MODEL 1
REMARK minimizedAffinity -5.19527912
REMARK minimizedRMSD -1
REMARK  Name = imageData/pubchem/ligands/644390_decoys.pdb
REMARK  7 active torsions:
REMARK  status: ('A' for Active; 'I' for Inactive)
REMARK    1  A    between atoms: C_2  and  O_3
REMARK    2  A    between atoms: O_3  and  C_4
REMARK    3  A    between atoms: C_9  and  N_12
REMARK    4  A    between atoms: N_12  and  C_13
REMARK    5  A    between atoms: C_13  and  C_14
REMARK    6  A    between atoms: C_14  and  N_15
REMARK    7  A    between atoms: C_16  and  C_18
REMARK                            x       y       z     vdW  Elec       q    Type
REMARK                         _______ _______ _______ _____ _____    ______ ____
ROOT
ATOM      1  N   UNL     1      13.060  -1.636  -3.812  0.00  0.00    +0.000 NA
ENDROOT
BRANCH   1   7
ATOM      2  C   UNL     1       8.932  -2.204  -7.534  0.00  0.00    +0.000 C 
ATOM      3  O   UNL     1       9.131  -1.786  -8.709  0.00  0.00    +0.000 OA
ATOM      4  N   UNL     1       9.843  -1.857  -6.485  0.00  0.00    +0.000 N 
ATOM      5  C   UNL     1      10.987  -0.990  -6.764  0.00  0.00    +0.000 C 
ATOM      6  C   UNL     1      12.260  -1.551  -6.124  0.00  0.00    +0.000 C 
ATOM      7  C   UNL     1      12.040  -2.137  -4.717  0.00  0.00    +0.000 C 
ATOM      8  C   UNL     1      10.656  -1.827  -4.152  0.00  0.00    +0.000 C 
ATOM      9  C   UNL     1       9.581  -2.318  -5.119  0.00  0.00    +0.000 C 
BRANCH   2  10
ATOM     10  O   UNL     1       7.819  -3.002  -7.253  0.00  0.00    +0.000 OA
BRANCH  10  12
ATOM     11  C   UNL     1       5.653  -3.966  -7.700  0.00  0.00    +0.000 C 
ATOM     12  C   UNL     1       6.527  -2.730  -7.784  0.00  0.00    +0.000 C 
ENDBRANCH  10  12
ENDBRANCH   2  10
ENDBRANCH   1   7
BRANCH   1  13
ATOM     13  C   UNL     1      12.408  -1.351  -2.544  0.00  0.00    +0.000 C 
BRANCH  13  14
ATOM     14  C   UNL     1      13.034  -2.186  -1.444  0.00  0.00    +0.000 C 
BRANCH  14  15
ATOM     15  N   UNL     1      11.997  -2.926  -0.742  0.00  0.00    +0.000 NA
ATOM     16  C   UNL     1      11.538  -4.206  -1.180  0.00  0.00    +0.000 C 
ATOM     17  O   UNL     1      12.073  -4.743  -2.189  0.00  0.00    +0.000 OA
BRANCH  16  18
ATOM     18  C   UNL     1      10.471  -4.931  -0.447  0.00  0.00    +0.000 A 
ATOM     19  C   UNL     1      10.865  -5.858   0.531  0.00  0.00    +0.000 A 
ATOM     20  C   UNL     1       9.920  -6.571   1.272  0.00  0.00    +0.000 A 
ATOM     21  C   UNL     1       8.561  -6.368   1.043  0.00  0.00    +0.000 A 
ATOM     22  C   UNL     1       8.147  -5.459   0.069  0.00  0.00    +0.000 A 
ATOM     23  C   UNL     1       9.084  -4.738  -0.681  0.00  0.00    +0.000 A 
ATOM     24 CL   UNL     1       8.443  -3.668  -1.920  0.00  0.00    +0.000 Cl
ENDBRANCH  16  18
ENDBRANCH  14  15
ENDBRANCH  13  14
ENDBRANCH   1  13
TORSDOF 7
ENDMDL
MODEL 2
REMARK minimizedAffinity -5.06067276
REMARK minimizedRMSD -1
REMARK  Name = imageData/pubchem/ligands/644390_decoys.pdb
REMARK  7 active torsions:
REMARK  status: ('A' for Active; 'I' for Inactive)
REMARK    1  A    between atoms: C_2  and  O_3
REMARK    2  A    between atoms: O_3  and  C_4
REMARK    3  A    between atoms: C_9  and  N_12
REMARK    4  A    between atoms: N_12  and  C_13
REMARK    5  A    between atoms: C_13  and  C_14
REMARK    6  A    between atoms: C_14  and  N_15
REMARK    7  A    between atoms: C_16  and  C_18
REMARK                            x       y       z     vdW  Elec       q    Type
REMARK                         _______ _______ _______ _____ _____    ______ ____
ROOT
ATOM      1  N   UNL     1      12.336  -2.628  -0.419  0.00  0.00    +0.000 NA
ENDROOT
BRANCH   1   7
ATOM      2  C   UNL     1       9.350  -7.326  -0.908  0.00  0.00    +0.000 C 
ATOM      3  O   UNL     1       9.630  -8.110  -1.857  0.00  0.00    +0.000 OA
ATOM      4  N   UNL     1       9.899  -6.003  -0.884  0.00  0.00    +0.000 N 
ATOM      5  C   UNL     1      10.757  -5.546  -1.977  0.00  0.00    +0.000 C 
ATOM      6  C   UNL     1      11.996  -4.832  -1.429  0.00  0.00    +0.000 C 
ATOM      7  C   UNL     1      11.705  -3.922  -0.222  0.00  0.00    +0.000 C 
ATOM      8  C   UNL     1      10.212  -3.731   0.034  0.00  0.00    +0.000 C 
ATOM      9  C   UNL     1       9.538  -5.090   0.204  0.00  0.00    +0.000 C 
BRANCH   2  10
ATOM     10  O   UNL     1       8.500  -7.744   0.121  0.00  0.00    +0.000 OA
BRANCH  10  12
ATOM     11  C   UNL     1       6.321  -6.829  -0.357  0.00  0.00    +0.000 C 
ATOM     12  C   UNL     1       7.136  -8.082  -0.103  0.00  0.00    +0.000 C 
ENDBRANCH  10  12
ENDBRANCH   2  10
ENDBRANCH   1   7
BRANCH   1  13
ATOM     13  C   UNL     1      13.227  -2.753  -1.561  0.00  0.00    +0.000 C 
BRANCH  13  14
ATOM     14  C   UNL     1      13.037  -1.571  -2.493  0.00  0.00    +0.000 C 
BRANCH  14  15
ATOM     15  N   UNL     1      12.302  -1.994  -3.674  0.00  0.00    +0.000 NA
ATOM     16  C   UNL     1      10.877  -1.930  -3.753  0.00  0.00    +0.000 C 
ATOM     17  O   UNL     1      10.224  -1.454  -2.784  0.00  0.00    +0.000 OA
BRANCH  16  18
ATOM     18  C   UNL     1      10.155  -2.379  -4.970  0.00  0.00    +0.000 A 
ATOM     19  C   UNL     1       9.440  -3.586  -4.896  0.00  0.00    +0.000 A 
ATOM     20  C   UNL     1       8.726  -4.069  -5.994  0.00  0.00    +0.000 A 
ATOM     21  C   UNL     1       8.719  -3.352  -7.188  0.00  0.00    +0.000 A 
ATOM     22  C   UNL     1       9.431  -2.157  -7.287  0.00  0.00    +0.000 A 
ATOM     23  C   UNL     1      10.151  -1.661  -6.194  0.00  0.00    +0.000 A 
ATOM     24 CL   UNL     1      11.057  -0.177  -6.458  0.00  0.00    +0.000 Cl
ENDBRANCH  16  18
ENDBRANCH  14  15
ENDBRANCH  13  14
ENDBRANCH   1  13
TORSDOF 7
ENDMDL
MODEL 3
REMARK minimizedAffinity -5.02928543
REMARK minimizedRMSD -1
REMARK  Name = imageData/pubchem/ligands/644390_decoys.pdb
REMARK  7 active torsions:
REMARK  status: ('A' for Active; 'I' for Inactive)
REMARK    1  A    between atoms: C_2  and  O_3
REMARK    2  A    between atoms: O_3  and  C_4
REMARK    3  A    between atoms: C_9  and  N_12
REMARK    4  A    between atoms: N_12  and  C_13
REMARK    5  A    between atoms: C_13  and  C_14
REMARK    6  A    between atoms: C_14  and  N_15
REMARK    7  A    between atoms: C_16  and  C_18
REMARK                            x       y       z     vdW  Elec       q    Type
REMARK                         _______ _______ _______ _____ _____    ______ ____
ROOT
ATOM      1  N   UNL     1      12.419  -1.496  -2.561  0.00  0.00    +0.000 NA
ENDROOT
BRANCH   1   7
ATOM      2  C   UNL     1       9.925  -1.739  -7.555  0.00  0.00    +0.000 C 
ATOM      3  O   UNL     1      10.361  -0.988  -8.472  0.00  0.00    +0.000 OA
ATOM      4  N   UNL     1      10.349  -1.538  -6.202  0.00  0.00    +0.000 N 
ATOM      5  C   UNL     1      11.259  -0.441  -5.873  0.00  0.00    +0.000 C 
ATOM      6  C   UNL     1      12.374  -0.925  -4.941  0.00  0.00    +0.000 C 
ATOM      7  C   UNL     1      11.892  -1.901  -3.853  0.00  0.00    +0.000 C 
ATOM      8  C   UNL     1      10.370  -2.004  -3.776  0.00  0.00    +0.000 C 
ATOM      9  C   UNL     1       9.809  -2.392  -5.141  0.00  0.00    +0.000 C 
BRANCH   2  10
ATOM     10  O   UNL     1       9.025  -2.766  -7.857  0.00  0.00    +0.000 OA
BRANCH  10  12
ATOM     11  C   UNL     1       6.623  -2.688  -7.653  0.00  0.00    +0.000 C 
ATOM     12  C   UNL     1       7.818  -2.539  -8.575  0.00  0.00    +0.000 C 
ENDBRANCH  10  12
ENDBRANCH   2  10
ENDBRANCH   1   7
BRANCH   1  13
ATOM     13  C   UNL     1      13.368  -2.515  -2.145  0.00  0.00    +0.000 C 
BRANCH  13  14
ATOM     14  C   UNL     1      12.937  -3.109  -0.817  0.00  0.00    +0.000 C 
BRANCH  14  15
ATOM     15  N   UNL     1      11.999  -4.195  -1.049  0.00  0.00    +0.000 NA
ATOM     16  C   UNL     1      10.627  -4.120  -0.655  0.00  0.00    +0.000 C 
ATOM     17  O   UNL     1      10.193  -3.062  -0.121  0.00  0.00    +0.000 OA
BRANCH  16  18
ATOM     18  C   UNL     1       9.697  -5.251  -0.896  0.00  0.00    +0.000 A 
ATOM     19  C   UNL     1       8.878  -5.190  -2.035  0.00  0.00    +0.000 A 
ATOM     20  C   UNL     1       7.986  -6.220  -2.338  0.00  0.00    +0.000 A 
ATOM     21  C   UNL     1       7.896  -7.330  -1.500  0.00  0.00    +0.000 A 
ATOM     22  C   UNL     1       8.693  -7.407  -0.358  0.00  0.00    +0.000 A 
ATOM     23  C   UNL     1       9.592  -6.380  -0.043  0.00  0.00    +0.000 A 
ATOM     24 CL   UNL     1      10.498  -6.561   1.453  0.00  0.00    +0.000 Cl
ENDBRANCH  16  18
ENDBRANCH  14  15
ENDBRANCH  13  14
ENDBRANCH   1  13
TORSDOF 7
ENDMDL
MODEL 4
REMARK minimizedAffinity -5.01833439
REMARK minimizedRMSD -1
REMARK  Name = imageData/pubchem/ligands/644390_decoys.pdb
REMARK  7 active torsions:
REMARK  status: ('A' for Active; 'I' for Inactive)
REMARK    1  A    between atoms: C_2  and  O_3
REMARK    2  A    between atoms: O_3  and  C_4
REMARK    3  A    between atoms: C_9  and  N_12
REMARK    4  A    between atoms: N_12  and  C_13
REMARK    5  A    between atoms: C_13  and  C_14
REMARK    6  A    between atoms: C_14  and  N_15
REMARK    7  A    between atoms: C_16  and  C_18
REMARK                            x       y       z     vdW  Elec       q    Type
REMARK                         _______ _______ _______ _____ _____    ______ ____
ROOT
ATOM      1  N   UNL     1      11.241  -6.416  -0.444  0.00  0.00    +0.000 NA
ENDROOT
BRANCH   1   7
ATOM      2  C   UNL     1      10.479  -1.510  -3.008  0.00  0.00    +0.000 C 
ATOM      3  O   UNL     1      10.484  -0.464  -2.300  0.00  0.00    +0.000 OA
ATOM      4  N   UNL     1      10.411  -2.798  -2.385  0.00  0.00    +0.000 N 
ATOM      5  C   UNL     1      10.313  -2.903  -0.929  0.00  0.00    +0.000 C 
ATOM      6  C   UNL     1      11.277  -3.968  -0.398  0.00  0.00    +0.000 C 
ATOM      7  C   UNL     1      11.352  -5.230  -1.277  0.00  0.00    +0.000 C 
ATOM      8  C   UNL     1      10.280  -5.264  -2.363  0.00  0.00    +0.000 C 
ATOM      9  C   UNL     1      10.369  -4.002  -3.217  0.00  0.00    +0.000 C 
BRANCH   2  10
ATOM     10  O   UNL     1      10.534  -1.414  -4.402  0.00  0.00    +0.000 OA
BRANCH  10  12
ATOM     11  C   UNL     1      11.241  -0.314  -6.429  0.00  0.00    +0.000 C 
ATOM     12  C   UNL     1      11.662  -0.885  -5.088  0.00  0.00    +0.000 C 
ENDBRANCH  10  12
ENDBRANCH   2  10
ENDBRANCH   1   7
BRANCH   1  13
ATOM     13  C   UNL     1      10.684  -5.996   0.831  0.00  0.00    +0.000 C 
BRANCH  13  14
ATOM     14  C   UNL     1       9.516  -6.889   1.202  0.00  0.00    +0.000 C 
BRANCH  14  15
ATOM     15  N   UNL     1       8.329  -6.468   0.475  0.00  0.00    +0.000 NA
ATOM     16  C   UNL     1       7.601  -7.350  -0.381  0.00  0.00    +0.000 C 
ATOM     17  O   UNL     1       7.969  -8.552  -0.488  0.00  0.00    +0.000 OA
BRANCH  16  18
ATOM     18  C   UNL     1       6.399  -6.886  -1.118  0.00  0.00    +0.000 A 
ATOM     19  C   UNL     1       6.598  -6.071  -2.244  0.00  0.00    +0.000 A 
ATOM     20  C   UNL     1       5.518  -5.605  -2.996  0.00  0.00    +0.000 A 
ATOM     21  C   UNL     1       4.218  -5.944  -2.630  0.00  0.00    +0.000 A 
ATOM     22  C   UNL     1       3.996  -6.744  -1.509  0.00  0.00    +0.000 A 
ATOM     23  C   UNL     1       5.070  -7.218  -0.746  0.00  0.00    +0.000 A 
ATOM     24 CL   UNL     1       4.663  -8.166   0.679  0.00  0.00    +0.000 Cl
ENDBRANCH  16  18
ENDBRANCH  14  15
ENDBRANCH  13  14
ENDBRANCH   1  13
TORSDOF 7
ENDMDL
MODEL 5
REMARK minimizedAffinity -5.01548862
REMARK minimizedRMSD -1
REMARK  Name = imageData/pubchem/ligands/644390_decoys.pdb
REMARK  7 active torsions:
REMARK  status: ('A' for Active; 'I' for Inactive)
REMARK    1  A    between atoms: C_2  and  O_3
REMARK    2  A    between atoms: O_3  and  C_4
REMARK    3  A    between atoms: C_9  and  N_12
REMARK    4  A    between atoms: N_12  and  C_13
REMARK    5  A    between atoms: C_13  and  C_14
REMARK    6  A    between atoms: C_14  and  N_15
REMARK    7  A    between atoms: C_16  and  C_18
REMARK                            x       y       z     vdW  Elec       q    Type
REMARK                         _______ _______ _______ _____ _____    ______ ____
ROOT
ATOM      1  N   UNL     1      11.665  -3.301  -0.141  0.00  0.00    +0.000 NA
ENDROOT
BRANCH   1   7
ATOM      2  C   UNL     1       9.148  -8.147  -1.330  0.00  0.00    +0.000 C 
ATOM      3  O   UNL     1       8.306  -8.595  -0.503  0.00  0.00    +0.000 OA
ATOM      4  N   UNL     1      10.003  -7.057  -0.964  0.00  0.00    +0.000 N 
ATOM      5  C   UNL     1       9.927  -6.485   0.381  0.00  0.00    +0.000 C 
ATOM      6  C   UNL     1       9.919  -4.955   0.317  0.00  0.00    +0.000 C 
ATOM      7  C   UNL     1      10.883  -4.373  -0.733  0.00  0.00    +0.000 C 
ATOM      8  C   UNL     1      11.818  -5.422  -1.329  0.00  0.00    +0.000 C 
ATOM      9  C   UNL     1      11.001  -6.569  -1.919  0.00  0.00    +0.000 C 
BRANCH   2  10
ATOM     10  O   UNL     1       9.253  -8.714  -2.604  0.00  0.00    +0.000 OA
BRANCH  10  12
ATOM     11  C   UNL     1       8.879  -7.759  -4.787  0.00  0.00    +0.000 C 
ATOM     12  C   UNL     1       8.274  -8.509  -3.616  0.00  0.00    +0.000 C 
ENDBRANCH  10  12
ENDBRANCH   2  10
ENDBRANCH   1   7
BRANCH   1  13
ATOM     13  C   UNL     1      12.896  -3.194  -0.906  0.00  0.00    +0.000 C 
BRANCH  13  14
ATOM     14  C   UNL     1      13.017  -1.801  -1.494  0.00  0.00    +0.000 C 
BRANCH  14  15
ATOM     15  N   UNL     1      12.592  -1.819  -2.885  0.00  0.00    +0.000 NA
ATOM     16  C   UNL     1      11.291  -1.393  -3.294  0.00  0.00    +0.000 C 
ATOM     17  O   UNL     1      10.487  -0.945  -2.431  0.00  0.00    +0.000 OA
BRANCH  16  18
ATOM     18  C   UNL     1      10.883  -1.433  -4.720  0.00  0.00    +0.000 A 
ATOM     19  C   UNL     1      11.377  -0.429  -5.569  0.00  0.00    +0.000 A 
ATOM     20  C   UNL     1      11.049  -0.405  -6.925  0.00  0.00    +0.000 A 
ATOM     21  C   UNL     1      10.217  -1.388  -7.456  0.00  0.00    +0.000 A 
ATOM     22  C   UNL     1       9.707  -2.389  -6.629  0.00  0.00    +0.000 A 
ATOM     23  C   UNL     1      10.028  -2.424  -5.267  0.00  0.00    +0.000 A 
ATOM     24 CL   UNL     1       9.276  -3.699  -4.316  0.00  0.00    +0.000 Cl
ENDBRANCH  16  18
ENDBRANCH  14  15
ENDBRANCH  13  14
ENDBRANCH   1  13
TORSDOF 7
ENDMDL
MODEL 6
REMARK minimizedAffinity -4.91250515
REMARK minimizedRMSD -1
REMARK  Name = imageData/pubchem/ligands/644390_decoys.pdb
REMARK  7 active torsions:
REMARK  status: ('A' for Active; 'I' for Inactive)
REMARK    1  A    between atoms: C_2  and  O_3
REMARK    2  A    between atoms: O_3  and  C_4
REMARK    3  A    between atoms: C_9  and  N_12
REMARK    4  A    between atoms: N_12  and  C_13
REMARK    5  A    between atoms: C_13  and  C_14
REMARK    6  A    between atoms: C_14  and  N_15
REMARK    7  A    between atoms: C_16  and  C_18
REMARK                            x       y       z     vdW  Elec       q    Type
REMARK                         _______ _______ _______ _____ _____    ______ ____
ROOT
ATOM      1  N   UNL     1      11.514  -1.524  -1.968  0.00  0.00    +0.000 NA
ENDROOT
BRANCH   1   7
ATOM      2  C   UNL     1       8.725  -5.707   0.470  0.00  0.00    +0.000 C 
ATOM      3  O   UNL     1       9.354  -6.448   1.276  0.00  0.00    +0.000 OA
ATOM      4  N   UNL     1       9.439  -4.793  -0.370  0.00  0.00    +0.000 N 
ATOM      5  C   UNL     1      10.900  -4.740  -0.322  0.00  0.00    +0.000 C 
ATOM      6  C   UNL     1      11.387  -3.289  -0.276  0.00  0.00    +0.000 C 
ATOM      7  C   UNL     1      10.595  -2.340  -1.193  0.00  0.00    +0.000 C 
ATOM      8  C   UNL     1       9.644  -3.076  -2.134  0.00  0.00    +0.000 C 
ATOM      9  C   UNL     1       8.701  -3.963  -1.326  0.00  0.00    +0.000 C 
BRANCH   2  10
ATOM     10  O   UNL     1       7.331  -5.779   0.392  0.00  0.00    +0.000 OA
BRANCH  10  12
ATOM     11  C   UNL     1       5.998  -6.601  -1.443  0.00  0.00    +0.000 C 
ATOM     12  C   UNL     1       6.650  -6.923  -0.112  0.00  0.00    +0.000 C 
ENDBRANCH  10  12
ENDBRANCH   2  10
ENDBRANCH   1   7
BRANCH   1  13
ATOM     13  C   UNL     1      12.443  -2.428  -2.625  0.00  0.00    +0.000 C 
BRANCH  13  14
ATOM     14  C   UNL     1      12.872  -1.846  -3.959  0.00  0.00    +0.000 C 
BRANCH  14  15
ATOM     15  N   UNL     1      11.907  -2.208  -4.983  0.00  0.00    +0.000 NA
ATOM     16  C   UNL     1      11.122  -1.235  -5.676  0.00  0.00    +0.000 C 
ATOM     17  O   UNL     1      11.294  -0.010  -5.426  0.00  0.00    +0.000 OA
BRANCH  16  18
ATOM     18  C   UNL     1      10.137  -1.638  -6.710  0.00  0.00    +0.000 A 
ATOM     19  C   UNL     1       8.997  -2.340  -6.286  0.00  0.00    +0.000 A 
ATOM     20  C   UNL     1       8.018  -2.743  -7.196  0.00  0.00    +0.000 A 
ATOM     21  C   UNL     1       8.167  -2.451  -8.551  0.00  0.00    +0.000 A 
ATOM     22  C   UNL     1       9.297  -1.765  -8.995  0.00  0.00    +0.000 A 
ATOM     23  C   UNL     1      10.285  -1.355  -8.092  0.00  0.00    +0.000 A 
ATOM     24 CL   UNL     1      11.691  -0.551  -8.779  0.00  0.00    +0.000 Cl
ENDBRANCH  16  18
ENDBRANCH  14  15
ENDBRANCH  13  14
ENDBRANCH   1  13
TORSDOF 7
ENDMDL
MODEL 7
REMARK minimizedAffinity -4.8806076
REMARK minimizedRMSD -1
REMARK  Name = imageData/pubchem/ligands/644390_decoys.pdb
REMARK  7 active torsions:
REMARK  status: ('A' for Active; 'I' for Inactive)
REMARK    1  A    between atoms: C_2  and  O_3
REMARK    2  A    between atoms: O_3  and  C_4
REMARK    3  A    between atoms: C_9  and  N_12
REMARK    4  A    between atoms: N_12  and  C_13
REMARK    5  A    between atoms: C_13  and  C_14
REMARK    6  A    between atoms: C_14  and  N_15
REMARK    7  A    between atoms: C_16  and  C_18
REMARK                            x       y       z     vdW  Elec       q    Type
REMARK                         _______ _______ _______ _____ _____    ______ ____
ROOT
ATOM      1  N   UNL     1      11.375  -1.323  -1.868  0.00  0.00    +0.000 NA
ENDROOT
BRANCH   1   7
ATOM      2  C   UNL     1       9.344  -2.175  -7.003  0.00  0.00    +0.000 C 
ATOM      3  O   UNL     1       8.295  -2.868  -7.118  0.00  0.00    +0.000 OA
ATOM      4  N   UNL     1      10.047  -2.139  -5.756  0.00  0.00    +0.000 N 
ATOM      5  C   UNL     1       9.570  -2.932  -4.623  0.00  0.00    +0.000 C 
ATOM      6  C   UNL     1       9.577  -2.097  -3.338  0.00  0.00    +0.000 C 
ATOM      7  C   UNL     1      10.809  -1.184  -3.199  0.00  0.00    +0.000 C 
ATOM      8  C   UNL     1      11.883  -1.469  -4.246  0.00  0.00    +0.000 C 
ATOM      9  C   UNL     1      11.283  -1.361  -5.645  0.00  0.00    +0.000 C 
BRANCH   2  10
ATOM     10  O   UNL     1       9.826  -1.445  -8.094  0.00  0.00    +0.000 OA
BRANCH  10  12
ATOM     11  C   UNL     1       9.550  -2.454 -10.267  0.00  0.00    +0.000 C 
ATOM     12  C   UNL     1      10.523  -2.053  -9.175  0.00  0.00    +0.000 C 
ENDBRANCH  10  12
ENDBRANCH   2  10
ENDBRANCH   1   7
BRANCH   1  13
ATOM     13  C   UNL     1      12.593  -2.107  -1.998  0.00  0.00    +0.000 C 
BRANCH  13  14
ATOM     14  C   UNL     1      12.682  -3.111  -0.865  0.00  0.00    +0.000 C 
BRANCH  14  15
ATOM     15  N   UNL     1      11.372  -3.691  -0.622  0.00  0.00    +0.000 NA
ATOM     16  C   UNL     1      10.976  -4.949  -1.172  0.00  0.00    +0.000 C 
ATOM     17  O   UNL     1      11.800  -5.608  -1.864  0.00  0.00    +0.000 OA
BRANCH  16  18
ATOM     18  C   UNL     1       9.626  -5.509  -0.913  0.00  0.00    +0.000 A 
ATOM     19  C   UNL     1       8.620  -5.250  -1.859  0.00  0.00    +0.000 A 
ATOM     20  C   UNL     1       7.329  -5.753  -1.693  0.00  0.00    +0.000 A 
ATOM     21  C   UNL     1       7.021  -6.522  -0.573  0.00  0.00    +0.000 A 
ATOM     22  C   UNL     1       8.002  -6.783   0.384  0.00  0.00    +0.000 A 
ATOM     23  C   UNL     1       9.301  -6.285   0.229  0.00  0.00    +0.000 A 
ATOM     24 CL   UNL     1      10.434  -6.629   1.530  0.00  0.00    +0.000 Cl
ENDBRANCH  16  18
ENDBRANCH  14  15
ENDBRANCH  13  14
ENDBRANCH   1  13
TORSDOF 7
ENDMDL
MODEL 8
REMARK minimizedAffinity -4.8804574
REMARK minimizedRMSD -1
REMARK  Name = imageData/pubchem/ligands/644390_decoys.pdb
REMARK  7 active torsions:
REMARK  status: ('A' for Active; 'I' for Inactive)
REMARK    1  A    between atoms: C_2  and  O_3
REMARK    2  A    between atoms: O_3  and  C_4
REMARK    3  A    between atoms: C_9  and  N_12
REMARK    4  A    between atoms: N_12  and  C_13
REMARK    5  A    between atoms: C_13  and  C_14
REMARK    6  A    between atoms: C_14  and  N_15
REMARK    7  A    between atoms: C_16  and  C_18
REMARK                            x       y       z     vdW  Elec       q    Type
REMARK                         _______ _______ _______ _____ _____    ______ ____
ROOT
ATOM      1  N   UNL     1       9.995  -2.087  -3.944  0.00  0.00    +0.000 NA
ENDROOT
BRANCH   1   7
ATOM      2  C   UNL     1      14.344  -1.605  -7.418  0.00  0.00    +0.000 C 
ATOM      3  O   UNL     1      15.370  -2.303  -7.184  0.00  0.00    +0.000 OA
ATOM      4  N   UNL     1      13.312  -1.493  -6.432  0.00  0.00    +0.000 N 
ATOM      5  C   UNL     1      13.459  -2.160  -5.138  0.00  0.00    +0.000 C 
ATOM      6  C   UNL     1      12.165  -2.882  -4.751  0.00  0.00    +0.000 C 
ATOM      7  C   UNL     1      10.889  -2.090  -5.089  0.00  0.00    +0.000 C 
ATOM      8  C   UNL     1      11.175  -0.654  -5.521  0.00  0.00    +0.000 C 
ATOM      9  C   UNL     1      12.144  -0.651  -6.700  0.00  0.00    +0.000 C 
BRANCH   2  10
ATOM     10  O   UNL     1      14.215  -0.935  -8.639  0.00  0.00    +0.000 OA
BRANCH  10  12
ATOM     11  C   UNL     1      14.658   0.686 -10.369  0.00  0.00    +0.000 C 
ATOM     12  C   UNL     1      14.974   0.226  -8.959  0.00  0.00    +0.000 C 
ENDBRANCH  10  12
ENDBRANCH   2  10
ENDBRANCH   1   7
BRANCH   1  13
ATOM     13  C   UNL     1      10.535  -1.142  -2.979  0.00  0.00    +0.000 C 
BRANCH  13  14
ATOM     14  C   UNL     1       9.924  -1.395  -1.614  0.00  0.00    +0.000 C 
BRANCH  14  15
ATOM     15  N   UNL     1       9.505  -2.784  -1.516  0.00  0.00    +0.000 NA
ATOM     16  C   UNL     1      10.144  -3.717  -0.642  0.00  0.00    +0.000 C 
ATOM     17  O   UNL     1      11.081  -3.323   0.106  0.00  0.00    +0.000 OA
BRANCH  16  18
ATOM     18  C   UNL     1       9.699  -5.131  -0.573  0.00  0.00    +0.000 A 
ATOM     19  C   UNL     1       8.820  -5.489   0.462  0.00  0.00    +0.000 A 
ATOM     20  C   UNL     1       8.347  -6.796   0.587  0.00  0.00    +0.000 A 
ATOM     21  C   UNL     1       8.751  -7.771  -0.322  0.00  0.00    +0.000 A 
ATOM     22  C   UNL     1       9.633  -7.441  -1.351  0.00  0.00    +0.000 A 
ATOM     23  C   UNL     1      10.114  -6.133  -1.488  0.00  0.00    +0.000 A 
ATOM     24 CL   UNL     1      11.266  -5.852  -2.787  0.00  0.00    +0.000 Cl
ENDBRANCH  16  18
ENDBRANCH  14  15
ENDBRANCH  13  14
ENDBRANCH   1  13
TORSDOF 7
ENDMDL
MODEL 9
REMARK minimizedAffinity -4.83540583
REMARK minimizedRMSD -1
REMARK  Name = imageData/pubchem/ligands/644390_decoys.pdb
REMARK  7 active torsions:
REMARK  status: ('A' for Active; 'I' for Inactive)
REMARK    1  A    between atoms: C_2  and  O_3
REMARK    2  A    between atoms: O_3  and  C_4
REMARK    3  A    between atoms: C_9  and  N_12
REMARK    4  A    between atoms: N_12  and  C_13
REMARK    5  A    between atoms: C_13  and  C_14
REMARK    6  A    between atoms: C_14  and  N_15
REMARK    7  A    between atoms: C_16  and  C_18
REMARK                            x       y       z     vdW  Elec       q    Type
REMARK                         _______ _______ _______ _____ _____    ______ ____
ROOT
ATOM      1  N   UNL     1       9.823  -3.905   0.017  0.00  0.00    +0.000 NA
ENDROOT
BRANCH   1   7
ATOM      2  C   UNL     1      11.730  -1.283  -4.534  0.00  0.00    +0.000 C 
ATOM      3  O   UNL     1      12.973  -1.084  -4.625  0.00  0.00    +0.000 OA
ATOM      4  N   UNL     1      11.162  -1.712  -3.291  0.00  0.00    +0.000 N 
ATOM      5  C   UNL     1      12.015  -1.886  -2.116  0.00  0.00    +0.000 C 
ATOM      6  C   UNL     1      11.691  -3.201  -1.401  0.00  0.00    +0.000 C 
ATOM      7  C   UNL     1      10.185  -3.515  -1.335  0.00  0.00    +0.000 C 
ATOM      8  C   UNL     1       9.312  -2.344  -1.782  0.00  0.00    +0.000 C 
ATOM      9  C   UNL     1       9.713  -1.907  -3.188  0.00  0.00    +0.000 C 
BRANCH   2  10
ATOM     10  O   UNL     1      10.903  -1.083  -5.644  0.00  0.00    +0.000 OA
BRANCH  10  12
ATOM     11  C   UNL     1       9.317  -2.300  -6.993  0.00  0.00    +0.000 C 
ATOM     12  C   UNL     1      10.779  -2.040  -6.689  0.00  0.00    +0.000 C 
ENDBRANCH  10  12
ENDBRANCH   2  10
ENDBRANCH   1   7
BRANCH   1  13
ATOM     13  C   UNL     1      10.593  -5.094   0.343  0.00  0.00    +0.000 C 
BRANCH  13  14
ATOM     14  C   UNL     1       9.694  -6.126   0.996  0.00  0.00    +0.000 C 
BRANCH  14  15
ATOM     15  N   UNL     1       8.336  -5.975   0.500  0.00  0.00    +0.000 NA
ATOM     16  C   UNL     1       7.659  -7.014  -0.209  0.00  0.00    +0.000 C 
ATOM     17  O   UNL     1       8.236  -8.122  -0.383  0.00  0.00    +0.000 OA
BRANCH  16  18
ATOM     18  C   UNL     1       6.275  -6.824  -0.712  0.00  0.00    +0.000 A 
ATOM     19  C   UNL     1       5.217  -7.187   0.137  0.00  0.00    +0.000 A 
ATOM     20  C   UNL     1       3.888  -7.028  -0.258  0.00  0.00    +0.000 A 
ATOM     21  C   UNL     1       3.595  -6.504  -1.515  0.00  0.00    +0.000 A 
ATOM     22  C   UNL     1       4.630  -6.147  -2.379  0.00  0.00    +0.000 A 
ATOM     23  C   UNL     1       5.968  -6.301  -1.994  0.00  0.00    +0.000 A 
ATOM     24 CL   UNL     1       7.184  -5.872  -3.191  0.00  0.00    +0.000 Cl
ENDBRANCH  16  18
ENDBRANCH  14  15
ENDBRANCH  13  14
ENDBRANCH   1  13
TORSDOF 7
ENDMDL
