MODEL 1
REMARK minimizedAffinity -7.27198458
REMARK minimizedRMSD -1
REMARK  Name = imageData/pubchem/ligands/5770444_decoys.pdb
REMARK  5 active torsions:
REMARK  status: ('A' for Active; 'I' for Inactive)
REMARK    1  A    between atoms: C_5  and  C_8
REMARK    2  A    between atoms: C_11  and  C_13
REMARK    3  A    between atoms: C_13  and  S_14
REMARK    4  A    between atoms: S_14  and  C_15
REMARK    5  A    between atoms: C_24  and  O_26
REMARK                            x       y       z     vdW  Elec       q    Type
REMARK                         _______ _______ _______ _____ _____    ______ ____
ROOT
ATOM      1  C   UNL     1      18.339   7.919  -9.571  0.00  0.00    +0.000 C 
ATOM      2  N   UNL     1      18.241   9.240  -9.229  0.00  0.00    +0.000 NA
ATOM      3  C   UNL     1      17.464  10.036  -9.998  0.00  0.00    +0.000 A 
ATOM      4  C   UNL     1      16.803   9.536 -11.079  0.00  0.00    +0.000 A 
ATOM      5  C   UNL     1      16.114  10.571 -11.637  0.00  0.00    +0.000 A 
ATOM      6  C   UNL     1      16.406  11.664 -10.841  0.00  0.00    +0.000 A 
ATOM      7  N   UNL     1      17.242  11.358  -9.816  0.00  0.00    +0.000 NA
ATOM      8  C   UNL     1      15.864  12.915 -11.120  0.00  0.00    +0.000 A 
ATOM      9  C   UNL     1      15.012  13.030 -12.235  0.00  0.00    +0.000 A 
ATOM     10  C   UNL     1      14.716  11.911 -13.047  0.00  0.00    +0.000 A 
ATOM     11  C   UNL     1      15.277  10.650 -12.744  0.00  0.00    +0.000 A 
ATOM     12  N   UNL     1      16.899   8.234 -11.423  0.00  0.00    +0.000 NA
ATOM     13  N   UNL     1      17.665   7.437 -10.667  0.00  0.00    +0.000 NA
ENDROOT
BRANCH  10  14
ATOM     14  O   UNL     1      13.863  12.084 -14.141  0.00  0.00    +0.000 OA
ATOM     15  C   UNL     1      13.276  13.337 -14.466  0.00  0.00    +0.000 C 
ENDBRANCH  10  14
BRANCH   1  16
ATOM     16  S   UNL     1      19.342   6.816  -8.584  0.00  0.00    +0.000 S 
BRANCH  16  17
ATOM     17  C   UNL     1      19.685   8.081  -7.321  0.00  0.00    +0.000 C 
BRANCH  17  21
ATOM     18  C   UNL     1      18.308   6.504  -4.485  0.00  0.00    +0.000 A 
ATOM     19  N   UNL     1      18.729   7.647  -3.905  0.00  0.00    +0.000 NA
ATOM     20  N   UNL     1      19.279   8.371  -4.867  0.00  0.00    +0.000 NA
ATOM     21  C   UNL     1      19.171   7.643  -5.994  0.00  0.00    +0.000 A 
ATOM     22  O   UNL     1      18.578   6.496  -5.769  0.00  0.00    +0.000 OA
BRANCH  18  27
ATOM     23  C   UNL     1      15.677   2.208  -1.697  0.00  0.00    +0.000 C 
ATOM     24  C   UNL     1      16.356   3.318  -2.416  0.00  0.00    +0.000 A 
ATOM     25  C   UNL     1      17.237   4.158  -1.729  0.00  0.00    +0.000 A 
ATOM     26  C   UNL     1      17.877   5.202  -2.405  0.00  0.00    +0.000 A 
ATOM     27  C   UNL     1      17.638   5.409  -3.771  0.00  0.00    +0.000 A 
ATOM     28  C   UNL     1      16.754   4.564  -4.453  0.00  0.00    +0.000 A 
ATOM     29  C   UNL     1      16.115   3.520  -3.777  0.00  0.00    +0.000 A 
ENDBRANCH  18  27
ENDBRANCH  17  21
ENDBRANCH  16  17
ENDBRANCH   1  16
TORSDOF 5
ENDMDL
MODEL 2
REMARK minimizedAffinity -7.1172781
REMARK minimizedRMSD -1
REMARK  Name = imageData/pubchem/ligands/5770444_decoys.pdb
REMARK  5 active torsions:
REMARK  status: ('A' for Active; 'I' for Inactive)
REMARK    1  A    between atoms: C_5  and  C_8
REMARK    2  A    between atoms: C_11  and  C_13
REMARK    3  A    between atoms: C_13  and  S_14
REMARK    4  A    between atoms: S_14  and  C_15
REMARK    5  A    between atoms: C_24  and  O_26
REMARK                            x       y       z     vdW  Elec       q    Type
REMARK                         _______ _______ _______ _____ _____    ______ ____
ROOT
ATOM      1  C   UNL     1      17.703   8.728  -5.148  0.00  0.00    +0.000 C 
ATOM      2  N   UNL     1      18.070   7.534  -5.703  0.00  0.00    +0.000 NA
ATOM      3  C   UNL     1      18.067   6.439  -4.909  0.00  0.00    +0.000 A 
ATOM      4  C   UNL     1      17.710   6.528  -3.598  0.00  0.00    +0.000 A 
ATOM      5  C   UNL     1      17.804   5.272  -3.075  0.00  0.00    +0.000 A 
ATOM      6  C   UNL     1      18.222   4.478  -4.128  0.00  0.00    +0.000 A 
ATOM      7  N   UNL     1      18.392   5.179  -5.279  0.00  0.00    +0.000 NA
ATOM      8  C   UNL     1      18.426   3.112  -3.955  0.00  0.00    +0.000 A 
ATOM      9  C   UNL     1      18.193   2.569  -2.678  0.00  0.00    +0.000 A 
ATOM     10  C   UNL     1      17.766   3.383  -1.603  0.00  0.00    +0.000 A 
ATOM     11  C   UNL     1      17.565   4.767  -1.802  0.00  0.00    +0.000 A 
ATOM     12  N   UNL     1      17.350   7.704  -3.043  0.00  0.00    +0.000 NA
ATOM     13  N   UNL     1      17.349   8.795  -3.822  0.00  0.00    +0.000 NA
ENDROOT
BRANCH  10  14
ATOM     14  O   UNL     1      17.550   2.788  -0.357  0.00  0.00    +0.000 OA
ATOM     15  C   UNL     1      18.169   3.254   0.834  0.00  0.00    +0.000 C 
ENDBRANCH  10  14
BRANCH   1  16
ATOM     16  S   UNL     1      17.678  10.207  -6.153  0.00  0.00    +0.000 S 
BRANCH  16  17
ATOM     17  C   UNL     1      17.160   9.312  -7.651  0.00  0.00    +0.000 C 
BRANCH  17  21
ATOM     18  C   UNL     1      16.597  11.113 -10.628  0.00  0.00    +0.000 A 
ATOM     19  N   UNL     1      17.550  11.898 -10.086  0.00  0.00    +0.000 NA
ATOM     20  N   UNL     1      17.882  11.338  -8.933  0.00  0.00    +0.000 NA
ATOM     21  C   UNL     1      17.120  10.234  -8.819  0.00  0.00    +0.000 A 
ATOM     22  O   UNL     1      16.329  10.089  -9.853  0.00  0.00    +0.000 OA
BRANCH  18  27
ATOM     23  C   UNL     1      14.039  12.121 -15.687  0.00  0.00    +0.000 C 
ATOM     24  C   UNL     1      14.698  11.862 -14.381  0.00  0.00    +0.000 A 
ATOM     25  C   UNL     1      14.283  12.554 -13.240  0.00  0.00    +0.000 A 
ATOM     26  C   UNL     1      14.904  12.310 -12.010  0.00  0.00    +0.000 A 
ATOM     27  C   UNL     1      15.942  11.373 -11.918  0.00  0.00    +0.000 A 
ATOM     28  C   UNL     1      16.354  10.683 -13.065  0.00  0.00    +0.000 A 
ATOM     29  C   UNL     1      15.733  10.927 -14.294  0.00  0.00    +0.000 A 
ENDBRANCH  18  27
ENDBRANCH  17  21
ENDBRANCH  16  17
ENDBRANCH   1  16
TORSDOF 5
ENDMDL
MODEL 3
REMARK minimizedAffinity -6.76577282
REMARK minimizedRMSD -1
REMARK  Name = imageData/pubchem/ligands/5770444_decoys.pdb
REMARK  5 active torsions:
REMARK  status: ('A' for Active; 'I' for Inactive)
REMARK    1  A    between atoms: C_5  and  C_8
REMARK    2  A    between atoms: C_11  and  C_13
REMARK    3  A    between atoms: C_13  and  S_14
REMARK    4  A    between atoms: S_14  and  C_15
REMARK    5  A    between atoms: C_24  and  O_26
REMARK                            x       y       z     vdW  Elec       q    Type
REMARK                         _______ _______ _______ _____ _____    ______ ____
ROOT
ATOM      1  C   UNL     1      17.719   9.252  -5.533  0.00  0.00    +0.000 C 
ATOM      2  N   UNL     1      17.742   8.102  -6.272  0.00  0.00    +0.000 NA
ATOM      3  C   UNL     1      17.799   6.925  -5.609  0.00  0.00    +0.000 A 
ATOM      4  C   UNL     1      17.835   6.889  -4.248  0.00  0.00    +0.000 A 
ATOM      5  C   UNL     1      17.886   5.576  -3.886  0.00  0.00    +0.000 A 
ATOM      6  C   UNL     1      17.879   4.877  -5.080  0.00  0.00    +0.000 A 
ATOM      7  N   UNL     1      17.825   5.692  -6.165  0.00  0.00    +0.000 NA
ATOM      8  C   UNL     1      17.923   3.486  -5.093  0.00  0.00    +0.000 A 
ATOM      9  C   UNL     1      17.975   2.818  -3.855  0.00  0.00    +0.000 A 
ATOM     10  C   UNL     1      17.983   3.536  -2.636  0.00  0.00    +0.000 A 
ATOM     11  C   UNL     1      17.937   4.947  -2.648  0.00  0.00    +0.000 A 
ATOM     12  N   UNL     1      17.815   8.022  -3.513  0.00  0.00    +0.000 NA
ATOM     13  N   UNL     1      17.757   9.193  -4.161  0.00  0.00    +0.000 NA
ENDROOT
BRANCH  10  14
ATOM     14  O   UNL     1      18.035   2.819  -1.437  0.00  0.00    +0.000 OA
ATOM     15  C   UNL     1      17.913   3.440  -0.165  0.00  0.00    +0.000 C 
ENDBRANCH  10  14
BRANCH   1  16
ATOM     16  S   UNL     1      17.631  10.838  -6.355  0.00  0.00    +0.000 S 
BRANCH  16  17
ATOM     17  C   UNL     1      19.033  10.468  -7.455  0.00  0.00    +0.000 C 
BRANCH  17  21
ATOM     18  C   UNL     1      17.764   9.664 -10.644  0.00  0.00    +0.000 A 
ATOM     19  N   UNL     1      18.128  10.941 -10.879  0.00  0.00    +0.000 NA
ATOM     20  N   UNL     1      18.643  11.396  -9.747  0.00  0.00    +0.000 NA
ATOM     21  C   UNL     1      18.575  10.379  -8.869  0.00  0.00    +0.000 A 
ATOM     22  O   UNL     1      18.037   9.313  -9.410  0.00  0.00    +0.000 OA
BRANCH  18  27
ATOM     23  C   UNL     1      15.323   6.196 -14.538  0.00  0.00    +0.000 C 
ATOM     24  C   UNL     1      15.953   7.092 -13.534  0.00  0.00    +0.000 A 
ATOM     25  C   UNL     1      16.175   8.437 -13.840  0.00  0.00    +0.000 A 
ATOM     26  C   UNL     1      16.767   9.281 -12.895  0.00  0.00    +0.000 A 
ATOM     27  C   UNL     1      17.141   8.782 -11.640  0.00  0.00    +0.000 A 
ATOM     28  C   UNL     1      16.918   7.432 -11.339  0.00  0.00    +0.000 A 
ATOM     29  C   UNL     1      16.325   6.589 -12.284  0.00  0.00    +0.000 A 
ENDBRANCH  18  27
ENDBRANCH  17  21
ENDBRANCH  16  17
ENDBRANCH   1  16
TORSDOF 5
ENDMDL
MODEL 4
REMARK minimizedAffinity -6.71629381
REMARK minimizedRMSD -1
REMARK  Name = imageData/pubchem/ligands/5770444_decoys.pdb
REMARK  5 active torsions:
REMARK  status: ('A' for Active; 'I' for Inactive)
REMARK    1  A    between atoms: C_5  and  C_8
REMARK    2  A    between atoms: C_11  and  C_13
REMARK    3  A    between atoms: C_13  and  S_14
REMARK    4  A    between atoms: S_14  and  C_15
REMARK    5  A    between atoms: C_24  and  O_26
REMARK                            x       y       z     vdW  Elec       q    Type
REMARK                         _______ _______ _______ _____ _____    ______ ____
ROOT
ATOM      1  C   UNL     1       0.415   3.306 -13.971  0.00  0.00    +0.000 C 
ATOM      2  N   UNL     1       0.288   2.496 -12.876  0.00  0.00    +0.000 NA
ATOM      3  C   UNL     1       1.169   1.480 -12.735  0.00  0.00    +0.000 A 
ATOM      4  C   UNL     1       2.150   1.271 -13.657  0.00  0.00    +0.000 A 
ATOM      5  C   UNL     1       2.865   0.190 -13.237  0.00  0.00    +0.000 A 
ATOM      6  C   UNL     1       2.260  -0.202 -12.056  0.00  0.00    +0.000 A 
ATOM      7  N   UNL     1       1.203   0.584 -11.722  0.00  0.00    +0.000 NA
ATOM      8  C   UNL     1       2.736  -1.295 -11.338  0.00  0.00    +0.000 A 
ATOM      9  C   UNL     1       3.851  -1.984 -11.852  0.00  0.00    +0.000 A 
ATOM     10  C   UNL     1       4.467  -1.582 -13.059  0.00  0.00    +0.000 A 
ATOM     11  C   UNL     1       3.967  -0.469 -13.771  0.00  0.00    +0.000 A 
ATOM     12  N   UNL     1       2.278   2.066 -14.740  0.00  0.00    +0.000 NA
ATOM     13  N   UNL     1       1.411   3.076 -14.889  0.00  0.00    +0.000 NA
ENDROOT
BRANCH  10  14
ATOM     14  O   UNL     1       5.571  -2.304 -13.520  0.00  0.00    +0.000 OA
ATOM     15  C   UNL     1       6.721  -2.543 -12.721  0.00  0.00    +0.000 C 
ENDBRANCH  10  14
BRANCH   1  16
ATOM     16  S   UNL     1      -0.714   4.673 -14.204  0.00  0.00    +0.000 S 
BRANCH  16  17
ATOM     17  C   UNL     1       0.610   5.832 -14.665  0.00  0.00    +0.000 C 
BRANCH  17  21
ATOM     18  C   UNL     1      -0.657   8.811 -13.270  0.00  0.00    +0.000 A 
ATOM     19  N   UNL     1       0.601   9.221 -13.531  0.00  0.00    +0.000 NA
ATOM     20  N   UNL     1       1.223   8.188 -14.079  0.00  0.00    +0.000 NA
ATOM     21  C   UNL     1       0.320   7.192 -14.132  0.00  0.00    +0.000 A 
ATOM     22  O   UNL     1      -0.835   7.564 -13.637  0.00  0.00    +0.000 OA
BRANCH  18  27
ATOM     23  C   UNL     1      -4.711  12.095 -10.834  0.00  0.00    +0.000 C 
ATOM     24  C   UNL     1      -3.665  11.248 -11.464  0.00  0.00    +0.000 A 
ATOM     25  C   UNL     1      -3.182  11.565 -12.737  0.00  0.00    +0.000 A 
ATOM     26  C   UNL     1      -2.198  10.768 -13.330  0.00  0.00    +0.000 A 
ATOM     27  C   UNL     1      -1.691   9.651 -12.651  0.00  0.00    +0.000 A 
ATOM     28  C   UNL     1      -2.179   9.338 -11.376  0.00  0.00    +0.000 A 
ATOM     29  C   UNL     1      -3.164  10.135 -10.784  0.00  0.00    +0.000 A 
ENDBRANCH  18  27
ENDBRANCH  17  21
ENDBRANCH  16  17
ENDBRANCH   1  16
TORSDOF 5
ENDMDL
MODEL 5
REMARK minimizedAffinity -6.63216209
REMARK minimizedRMSD -1
REMARK  Name = imageData/pubchem/ligands/5770444_decoys.pdb
REMARK  5 active torsions:
REMARK  status: ('A' for Active; 'I' for Inactive)
REMARK    1  A    between atoms: C_5  and  C_8
REMARK    2  A    between atoms: C_11  and  C_13
REMARK    3  A    between atoms: C_13  and  S_14
REMARK    4  A    between atoms: S_14  and  C_15
REMARK    5  A    between atoms: C_24  and  O_26
REMARK                            x       y       z     vdW  Elec       q    Type
REMARK                         _______ _______ _______ _____ _____    ______ ____
ROOT
ATOM      1  C   UNL     1      -9.020  10.274 -10.277  0.00  0.00    +0.000 C 
ATOM      2  N   UNL     1      -9.742  10.094  -9.130  0.00  0.00    +0.000 NA
ATOM      3  C   UNL     1      -9.655   8.895  -8.510  0.00  0.00    +0.000 A 
ATOM      4  C   UNL     1      -8.874   7.901  -9.017  0.00  0.00    +0.000 A 
ATOM      5  C   UNL     1      -8.994   6.834  -8.176  0.00  0.00    +0.000 A 
ATOM      6  C   UNL     1      -9.863   7.257  -7.186  0.00  0.00    +0.000 A 
ATOM      7  N   UNL     1     -10.288   8.533  -7.370  0.00  0.00    +0.000 NA
ATOM      8  C   UNL     1     -10.220   6.410  -6.140  0.00  0.00    +0.000 A 
ATOM      9  C   UNL     1      -9.668   5.115  -6.125  0.00  0.00    +0.000 A 
ATOM     10  C   UNL     1      -8.780   4.686  -7.138  0.00  0.00    +0.000 A 
ATOM     11  C   UNL     1      -8.432   5.563  -8.190  0.00  0.00    +0.000 A 
ATOM     12  N   UNL     1      -8.161   8.073 -10.150  0.00  0.00    +0.000 NA
ATOM     13  N   UNL     1      -8.240   9.257 -10.771  0.00  0.00    +0.000 NA
ENDROOT
BRANCH  10  14
ATOM     14  O   UNL     1      -8.263   3.389  -7.071  0.00  0.00    +0.000 OA
ATOM     15  C   UNL     1      -7.469   2.825  -8.105  0.00  0.00    +0.000 C 
ENDBRANCH  10  14
BRANCH   1  16
ATOM     16  S   UNL     1      -9.087  11.843 -11.133  0.00  0.00    +0.000 S 
BRANCH  16  17
ATOM     17  C   UNL     1      -7.934  12.648  -9.978  0.00  0.00    +0.000 C 
BRANCH  17  21
ATOM     18  C   UNL     1      -4.730  12.150 -11.359  0.00  0.00    +0.000 A 
ATOM     19  N   UNL     1      -4.768  13.497 -11.402  0.00  0.00    +0.000 NA
ATOM     20  N   UNL     1      -5.940  13.852 -10.897  0.00  0.00    +0.000 NA
ATOM     21  C   UNL     1      -6.567  12.708 -10.566  0.00  0.00    +0.000 A 
ATOM     22  O   UNL     1      -5.833  11.659 -10.847  0.00  0.00    +0.000 OA
BRANCH  18  27
ATOM     23  C   UNL     1      -0.298   8.974 -13.212  0.00  0.00    +0.000 C 
ATOM     24  C   UNL     1      -1.442   9.793 -12.733  0.00  0.00    +0.000 A 
ATOM     25  C   UNL     1      -2.042   9.504 -11.504  0.00  0.00    +0.000 A 
ATOM     26  C   UNL     1      -3.118  10.274 -11.053  0.00  0.00    +0.000 A 
ATOM     27  C   UNL     1      -3.599  11.337 -11.829  0.00  0.00    +0.000 A 
ATOM     28  C   UNL     1      -2.995  11.622 -13.060  0.00  0.00    +0.000 A 
ATOM     29  C   UNL     1      -1.918  10.851 -13.511  0.00  0.00    +0.000 A 
ENDBRANCH  18  27
ENDBRANCH  17  21
ENDBRANCH  16  17
ENDBRANCH   1  16
TORSDOF 5
ENDMDL
MODEL 6
REMARK minimizedAffinity -6.58541393
REMARK minimizedRMSD -1
REMARK  Name = imageData/pubchem/ligands/5770444_decoys.pdb
REMARK  5 active torsions:
REMARK  status: ('A' for Active; 'I' for Inactive)
REMARK    1  A    between atoms: C_5  and  C_8
REMARK    2  A    between atoms: C_11  and  C_13
REMARK    3  A    between atoms: C_13  and  S_14
REMARK    4  A    between atoms: S_14  and  C_15
REMARK    5  A    between atoms: C_24  and  O_26
REMARK                            x       y       z     vdW  Elec       q    Type
REMARK                         _______ _______ _______ _____ _____    ______ ____
ROOT
ATOM      1  C   UNL     1      -9.439  10.321 -10.186  0.00  0.00    +0.000 C 
ATOM      2  N   UNL     1      -8.652   9.210 -10.313  0.00  0.00    +0.000 NA
ATOM      3  C   UNL     1      -8.804   8.219  -9.404  0.00  0.00    +0.000 A 
ATOM      4  C   UNL     1      -9.712   8.330  -8.395  0.00  0.00    +0.000 A 
ATOM      5  C   UNL     1      -9.629   7.185  -7.660  0.00  0.00    +0.000 A 
ATOM      6  C   UNL     1      -8.652   6.431  -8.283  0.00  0.00    +0.000 A 
ATOM      7  N   UNL     1      -8.123   7.051  -9.370  0.00  0.00    +0.000 NA
ATOM      8  C   UNL     1      -8.298   5.177  -7.794  0.00  0.00    +0.000 A 
ATOM      9  C   UNL     1      -8.966   4.704  -6.649  0.00  0.00    +0.000 A 
ATOM     10  C   UNL     1      -9.965   5.478  -6.013  0.00  0.00    +0.000 A 
ATOM     11  C   UNL     1     -10.308   6.748  -6.528  0.00  0.00    +0.000 A 
ATOM     12  N   UNL     1     -10.489   9.426  -8.263  0.00  0.00    +0.000 NA
ATOM     13  N   UNL     1     -10.347  10.412  -9.159  0.00  0.00    +0.000 NA
ENDROOT
BRANCH  10  14
ATOM     14  O   UNL     1     -10.595   4.957  -4.880  0.00  0.00    +0.000 OA
ATOM     15  C   UNL     1     -10.079   3.848  -4.156  0.00  0.00    +0.000 C 
ENDBRANCH  10  14
BRANCH   1  16
ATOM     16  S   UNL     1      -9.290  11.657 -11.366  0.00  0.00    +0.000 S 
BRANCH  16  17
ATOM     17  C   UNL     1      -8.341  12.707 -10.222  0.00  0.00    +0.000 C 
BRANCH  17  21
ATOM     18  C   UNL     1      -5.012  12.193 -11.259  0.00  0.00    +0.000 A 
ATOM     19  N   UNL     1      -4.987  13.536 -11.134  0.00  0.00    +0.000 NA
ATOM     20  N   UNL     1      -6.197  13.895 -10.734  0.00  0.00    +0.000 NA
ATOM     21  C   UNL     1      -6.910  12.758 -10.629  0.00  0.00    +0.000 A 
ATOM     22  O   UNL     1      -6.192  11.710 -10.951  0.00  0.00    +0.000 OA
BRANCH  18  27
ATOM     23  C   UNL     1      -0.527   8.993 -12.933  0.00  0.00    +0.000 C 
ATOM     24  C   UNL     1      -1.685   9.820 -12.502  0.00  0.00    +0.000 A 
ATOM     25  C   UNL     1      -2.162  10.839 -13.331  0.00  0.00    +0.000 A 
ATOM     26  C   UNL     1      -3.251  11.617 -12.925  0.00  0.00    +0.000 A 
ATOM     27  C   UNL     1      -3.867  11.379 -11.690  0.00  0.00    +0.000 A 
ATOM     28  C   UNL     1      -3.384  10.356 -10.863  0.00  0.00    +0.000 A 
ATOM     29  C   UNL     1      -2.295   9.578 -11.269  0.00  0.00    +0.000 A 
ENDBRANCH  18  27
ENDBRANCH  17  21
ENDBRANCH  16  17
ENDBRANCH   1  16
TORSDOF 5
ENDMDL
MODEL 7
REMARK minimizedAffinity -6.455369
REMARK minimizedRMSD -1
REMARK  Name = imageData/pubchem/ligands/5770444_decoys.pdb
REMARK  5 active torsions:
REMARK  status: ('A' for Active; 'I' for Inactive)
REMARK    1  A    between atoms: C_5  and  C_8
REMARK    2  A    between atoms: C_11  and  C_13
REMARK    3  A    between atoms: C_13  and  S_14
REMARK    4  A    between atoms: S_14  and  C_15
REMARK    5  A    between atoms: C_24  and  O_26
REMARK                            x       y       z     vdW  Elec       q    Type
REMARK                         _______ _______ _______ _____ _____    ______ ____
ROOT
ATOM      1  C   UNL     1      11.820  -3.602  -0.790  0.00  0.00    +0.000 C 
ATOM      2  N   UNL     1      11.915  -4.902  -1.205  0.00  0.00    +0.000 NA
ATOM      3  C   UNL     1      10.826  -5.692  -1.067  0.00  0.00    +0.000 A 
ATOM      4  C   UNL     1       9.673  -5.205  -0.530  0.00  0.00    +0.000 A 
ATOM      5  C   UNL     1       8.772  -6.228  -0.529  0.00  0.00    +0.000 A 
ATOM      6  C   UNL     1       9.451  -7.301  -1.079  0.00  0.00    +0.000 A 
ATOM      7  N   UNL     1      10.729  -6.993  -1.422  0.00  0.00    +0.000 NA
ATOM      8  C   UNL     1       8.828  -8.535  -1.235  0.00  0.00    +0.000 A 
ATOM      9  C   UNL     1       7.490  -8.655  -0.817  0.00  0.00    +0.000 A 
ATOM     10  C   UNL     1       6.798  -7.557  -0.254  0.00  0.00    +0.000 A 
ATOM     11  C   UNL     1       7.451  -6.313  -0.105  0.00  0.00    +0.000 A 
ATOM     12  N   UNL     1       9.574  -3.924  -0.116  0.00  0.00    +0.000 NA
ATOM     13  N   UNL     1      10.647  -3.133  -0.249  0.00  0.00    +0.000 NA
ENDROOT
BRANCH  10  14
ATOM     14  O   UNL     1       5.470  -7.734   0.143  0.00  0.00    +0.000 OA
ATOM     15  C   UNL     1       4.546  -6.658   0.233  0.00  0.00    +0.000 C 
ENDBRANCH  10  14
BRANCH   1  16
ATOM     16  S   UNL     1      13.225  -2.509  -0.959  0.00  0.00    +0.000 S 
BRANCH  16  17
ATOM     17  C   UNL     1      12.421  -1.494  -2.238  0.00  0.00    +0.000 C 
BRANCH  17  21
ATOM     18  C   UNL     1      14.009  -2.768  -5.116  0.00  0.00    +0.000 A 
ATOM     19  N   UNL     1      13.136  -1.930  -5.712  0.00  0.00    +0.000 NA
ATOM     20  N   UNL     1      12.449  -1.353  -4.738  0.00  0.00    +0.000 NA
ATOM     21  C   UNL     1      12.931  -1.860  -3.588  0.00  0.00    +0.000 A 
ATOM     22  O   UNL     1      13.887  -2.729  -3.810  0.00  0.00    +0.000 OA
BRANCH  18  27
ATOM     23  C   UNL     1      17.762  -6.100  -7.938  0.00  0.00    +0.000 C 
ATOM     24  C   UNL     1      16.794  -5.239  -7.209  0.00  0.00    +0.000 A 
ATOM     25  C   UNL     1      17.133  -3.921  -6.893  0.00  0.00    +0.000 A 
ATOM     26  C   UNL     1      16.222  -3.110  -6.208  0.00  0.00    +0.000 A 
ATOM     27  C   UNL     1      14.969  -3.615  -5.836  0.00  0.00    +0.000 A 
ATOM     28  C   UNL     1      14.635  -4.938  -6.155  0.00  0.00    +0.000 A 
ATOM     29  C   UNL     1      15.546  -5.748  -6.841  0.00  0.00    +0.000 A 
ENDBRANCH  18  27
ENDBRANCH  17  21
ENDBRANCH  16  17
ENDBRANCH   1  16
TORSDOF 5
ENDMDL
MODEL 8
REMARK minimizedAffinity -6.34402895
REMARK minimizedRMSD -1
REMARK  Name = imageData/pubchem/ligands/5770444_decoys.pdb
REMARK  5 active torsions:
REMARK  status: ('A' for Active; 'I' for Inactive)
REMARK    1  A    between atoms: C_5  and  C_8
REMARK    2  A    between atoms: C_11  and  C_13
REMARK    3  A    between atoms: C_13  and  S_14
REMARK    4  A    between atoms: S_14  and  C_15
REMARK    5  A    between atoms: C_24  and  O_26
REMARK                            x       y       z     vdW  Elec       q    Type
REMARK                         _______ _______ _______ _____ _____    ______ ____
ROOT
ATOM      1  C   UNL     1      11.897  -3.703  -0.877  0.00  0.00    +0.000 C 
ATOM      2  N   UNL     1      11.899  -5.022  -1.238  0.00  0.00    +0.000 NA
ATOM      3  C   UNL     1      10.758  -5.727  -1.062  0.00  0.00    +0.000 A 
ATOM      4  C   UNL     1       9.646  -5.139  -0.539  0.00  0.00    +0.000 A 
ATOM      5  C   UNL     1       8.677  -6.096  -0.491  0.00  0.00    +0.000 A 
ATOM      6  C   UNL     1       9.275  -7.236  -0.999  0.00  0.00    +0.000 A 
ATOM      7  N   UNL     1      10.568  -7.033  -1.361  0.00  0.00    +0.000 NA
ATOM      8  C   UNL     1       8.566  -8.429  -1.101  0.00  0.00    +0.000 A 
ATOM      9  C   UNL     1       7.226  -8.437  -0.671  0.00  0.00    +0.000 A 
ATOM     10  C   UNL     1       6.617  -7.272  -0.151  0.00  0.00    +0.000 A 
ATOM     11  C   UNL     1       7.356  -6.071  -0.058  0.00  0.00    +0.000 A 
ATOM     12  N   UNL     1       9.640  -3.838  -0.179  0.00  0.00    +0.000 NA
ATOM     13  N   UNL     1      10.764  -3.131  -0.350  0.00  0.00    +0.000 NA
ENDROOT
BRANCH  10  14
ATOM     14  O   UNL     1       5.283  -7.339   0.260  0.00  0.00    +0.000 OA
ATOM     15  C   UNL     1       4.219  -6.771  -0.491  0.00  0.00    +0.000 C 
ENDBRANCH  10  14
BRANCH   1  16
ATOM     16  S   UNL     1      13.373  -2.718  -1.098  0.00  0.00    +0.000 S 
BRANCH  16  17
ATOM     17  C   UNL     1      12.485  -1.379  -1.953  0.00  0.00    +0.000 C 
BRANCH  17  21
ATOM     18  C   UNL     1      11.350  -2.053  -5.221  0.00  0.00    +0.000 A 
ATOM     19  N   UNL     1      12.660  -2.322  -5.396  0.00  0.00    +0.000 NA
ATOM     20  N   UNL     1      13.241  -2.116  -4.223  0.00  0.00    +0.000 NA
ATOM     21  C   UNL     1      12.262  -1.733  -3.382  0.00  0.00    +0.000 A 
ATOM     22  O   UNL     1      11.100  -1.690  -3.986  0.00  0.00    +0.000 OA
BRANCH  18  27
ATOM     23  C   UNL     1       7.382  -2.433  -9.376  0.00  0.00    +0.000 C 
ATOM     24  C   UNL     1       8.405  -2.335  -8.303  0.00  0.00    +0.000 A 
ATOM     25  C   UNL     1       8.147  -2.877  -7.041  0.00  0.00    +0.000 A 
ATOM     26  C   UNL     1       9.110  -2.785  -6.031  0.00  0.00    +0.000 A 
ATOM     27  C   UNL     1      10.335  -2.152  -6.279  0.00  0.00    +0.000 A 
ATOM     28  C   UNL     1      10.588  -1.610  -7.546  0.00  0.00    +0.000 A 
ATOM     29  C   UNL     1       9.625  -1.702  -8.556  0.00  0.00    +0.000 A 
ENDBRANCH  18  27
ENDBRANCH  17  21
ENDBRANCH  16  17
ENDBRANCH   1  16
TORSDOF 5
ENDMDL
MODEL 9
REMARK minimizedAffinity -6.30876637
REMARK minimizedRMSD -1
REMARK  Name = imageData/pubchem/ligands/5770444_decoys.pdb
REMARK  5 active torsions:
REMARK  status: ('A' for Active; 'I' for Inactive)
REMARK    1  A    between atoms: C_5  and  C_8
REMARK    2  A    between atoms: C_11  and  C_13
REMARK    3  A    between atoms: C_13  and  S_14
REMARK    4  A    between atoms: S_14  and  C_15
REMARK    5  A    between atoms: C_24  and  O_26
REMARK                            x       y       z     vdW  Elec       q    Type
REMARK                         _______ _______ _______ _____ _____    ______ ____
ROOT
ATOM      1  C   UNL     1      -7.847   4.529  -8.243  0.00  0.00    +0.000 C 
ATOM      2  N   UNL     1      -6.716   4.235  -8.954  0.00  0.00    +0.000 NA
ATOM      3  C   UNL     1      -6.159   3.015  -8.781  0.00  0.00    +0.000 A 
ATOM      4  C   UNL     1      -6.709   2.110  -7.924  0.00  0.00    +0.000 A 
ATOM      5  C   UNL     1      -5.931   0.992  -7.973  0.00  0.00    +0.000 A 
ATOM      6  C   UNL     1      -4.930   1.295  -8.880  0.00  0.00    +0.000 A 
ATOM      7  N   UNL     1      -5.050   2.545  -9.397  0.00  0.00    +0.000 NA
ATOM      8  C   UNL     1      -3.939   0.366  -9.184  0.00  0.00    +0.000 A 
ATOM      9  C   UNL     1      -3.988  -0.884  -8.540  0.00  0.00    +0.000 A 
ATOM     10  C   UNL     1      -5.012  -1.190  -7.614  0.00  0.00    +0.000 A 
ATOM     11  C   UNL     1      -6.008  -0.233  -7.321  0.00  0.00    +0.000 A 
ATOM     12  N   UNL     1      -7.823   2.396  -7.217  0.00  0.00    +0.000 NA
ATOM     13  N   UNL     1      -8.383   3.602  -7.382  0.00  0.00    +0.000 NA
ENDROOT
BRANCH  10  14
ATOM     14  O   UNL     1      -5.010  -2.449  -7.005  0.00  0.00    +0.000 OA
ATOM     15  C   UNL     1      -5.061  -2.620  -5.596  0.00  0.00    +0.000 C 
ENDBRANCH  10  14
BRANCH   1  16
ATOM     16  S   UNL     1      -8.633   6.123  -8.440  0.00  0.00    +0.000 S 
BRANCH  16  17
ATOM     17  C   UNL     1      -8.360   6.158 -10.239  0.00  0.00    +0.000 C 
BRANCH  17  21
ATOM     18  C   UNL     1      -5.702   8.249 -11.232  0.00  0.00    +0.000 A 
ATOM     19  N   UNL     1      -6.626   9.196 -10.969  0.00  0.00    +0.000 NA
ATOM     20  N   UNL     1      -7.712   8.554 -10.567  0.00  0.00    +0.000 NA
ATOM     21  C   UNL     1      -7.407   7.244 -10.599  0.00  0.00    +0.000 A 
ATOM     22  O   UNL     1      -6.178   7.047 -11.007  0.00  0.00    +0.000 OA
BRANCH  18  27
ATOM     23  C   UNL     1      -0.369   9.349 -13.102  0.00  0.00    +0.000 C 
ATOM     24  C   UNL     1      -1.746   9.065 -12.620  0.00  0.00    +0.000 A 
ATOM     25  C   UNL     1      -2.575   8.205 -13.346  0.00  0.00    +0.000 A 
ATOM     26  C   UNL     1      -3.871   7.937 -12.893  0.00  0.00    +0.000 A 
ATOM     27  C   UNL     1      -4.342   8.528 -11.712  0.00  0.00    +0.000 A 
ATOM     28  C   UNL     1      -3.506   9.389 -10.990  0.00  0.00    +0.000 A 
ATOM     29  C   UNL     1      -2.211   9.657 -11.443  0.00  0.00    +0.000 A 
ENDBRANCH  18  27
ENDBRANCH  17  21
ENDBRANCH  16  17
ENDBRANCH   1  16
TORSDOF 5
ENDMDL
