MODEL 1
REMARK minimizedAffinity -5.73019695
REMARK minimizedRMSD -1
REMARK  Name = imageData/pubchem/ligands/644391_decoys.pdb
REMARK  10 active torsions:
REMARK  status: ('A' for Active; 'I' for Inactive)
REMARK    1  A    between atoms: C_2  and  O_3
REMARK    2  A    between atoms: O_3  and  C_4
REMARK    3  A    between atoms: C_9  and  N_10
REMARK    4  A    between atoms: N_10  and  C_11
REMARK    5  A    between atoms: C_11  and  C_12
REMARK    6  A    between atoms: C_11  and  C_18
REMARK    7  A    between atoms: N_20  and  C_21
REMARK    8  A    between atoms: C_25  and  C_27
REMARK    9  A    between atoms: C_27  and  N_28
REMARK   10  A    between atoms: C_29  and  C_31
REMARK                            x       y       z     vdW  Elec       q    Type
REMARK                         _______ _______ _______ _____ _____    ______ ____
ROOT
ATOM      1  N   UNL     1      10.818  -3.571  -3.303  0.00  0.00    +0.000 N 
ATOM      2  C   UNL     1      10.314  -2.382  -3.938  0.00  0.00    +0.000 C 
ATOM      3  O   UNL     1      10.200  -1.313  -3.281  0.00  0.00    +0.000 OA
ENDROOT
BRANCH   1   9
ATOM      4  C   UNL     1       9.846  -5.630  -4.251  0.00  0.00    +0.000 A 
ATOM      5  C   UNL     1      10.006  -6.827  -4.968  0.00  0.00    +0.000 A 
ATOM      6  C   UNL     1      11.257  -7.185  -5.476  0.00  0.00    +0.000 A 
ATOM      7  C   UNL     1      12.358  -6.351  -5.273  0.00  0.00    +0.000 A 
ATOM      8  C   UNL     1      12.209  -5.159  -4.561  0.00  0.00    +0.000 A 
ATOM      9  C   UNL     1      10.957  -4.792  -4.051  0.00  0.00    +0.000 A 
BRANCH   4  10
ATOM     10  O   UNL     1       8.600  -5.254  -3.733  0.00  0.00    +0.000 OA
BRANCH  10  12
ATOM     11  C   UNL     1       6.442  -5.634  -2.729  0.00  0.00    +0.000 C 
ATOM     12  C   UNL     1       7.454  -6.097  -3.761  0.00  0.00    +0.000 C 
ENDBRANCH  10  12
ENDBRANCH   4  10
ENDBRANCH   1   9
BRANCH   1  13
ATOM     13  C   UNL     1      11.187  -3.517  -1.884  0.00  0.00    +0.000 C 
BRANCH  13  14
ATOM     14  C   UNL     1      12.549  -2.923  -1.654  0.00  0.00    +0.000 A 
ATOM     15  C   UNL     1      13.325  -2.431  -2.713  0.00  0.00    +0.000 A 
ATOM     16  C   UNL     1      14.565  -1.850  -2.441  0.00  0.00    +0.000 A 
ATOM     17  N   UNL     1      15.008  -1.757  -1.159  0.00  0.00    +0.000 NA
ATOM     18  C   UNL     1      14.268  -2.219  -0.115  0.00  0.00    +0.000 A 
ATOM     19  C   UNL     1      13.022  -2.807  -0.345  0.00  0.00    +0.000 A 
ENDBRANCH  13  14
BRANCH  13  20
ATOM     20  C   UNL     1      10.934  -4.814  -1.175  0.00  0.00    +0.000 C 
ATOM     21  O   UNL     1      11.811  -5.720  -1.157  0.00  0.00    +0.000 OA
ATOM     22  N   UNL     1       9.661  -5.023  -0.552  0.00  0.00    +0.000 NA
BRANCH  22  23
ATOM     23  C   UNL     1       9.255  -6.252   0.125  0.00  0.00    +0.000 C 
ATOM     24  C   UNL     1      10.178  -6.543   1.294  0.00  0.00    +0.000 C 
ATOM     25  C   UNL     1       7.847  -6.077   0.652  0.00  0.00    +0.000 C 
ATOM     26  C   UNL     1       9.269  -7.419  -0.846  0.00  0.00    +0.000 C 
ENDBRANCH  22  23
ENDBRANCH  13  20
ENDBRANCH   1  13
BRANCH   2  27
ATOM     27  C   UNL     1       9.891  -2.389  -5.371  0.00  0.00    +0.000 C 
BRANCH  27  28
ATOM     28  N   UNL     1      11.046  -2.154  -6.220  0.00  0.00    +0.000 NA
ATOM     29  C   UNL     1      11.458  -0.840  -6.596  0.00  0.00    +0.000 C 
ATOM     30  O   UNL     1      10.795   0.166  -6.222  0.00  0.00    +0.000 OA
BRANCH  29  31
ATOM     31  C   UNL     1      12.659  -0.656  -7.416  0.00  0.00    +0.000 A 
ATOM     32  C   UNL     1      13.857  -1.313  -7.238  0.00  0.00    +0.000 A 
ATOM     33  C   UNL     1      14.682  -0.822  -8.236  0.00  0.00    +0.000 A 
ATOM     34  C   UNL     1      13.933   0.097  -8.950  0.00  0.00    +0.000 A 
ATOM     35  O   UNL     1      12.731   0.169  -8.429  0.00  0.00    +0.000 OA
ENDBRANCH  29  31
ENDBRANCH  27  28
ENDBRANCH   2  27
TORSDOF 10
ENDMDL
MODEL 2
REMARK minimizedAffinity -5.64873981
REMARK minimizedRMSD -1
REMARK  Name = imageData/pubchem/ligands/644391_decoys.pdb
REMARK  10 active torsions:
REMARK  status: ('A' for Active; 'I' for Inactive)
REMARK    1  A    between atoms: C_2  and  O_3
REMARK    2  A    between atoms: O_3  and  C_4
REMARK    3  A    between atoms: C_9  and  N_10
REMARK    4  A    between atoms: N_10  and  C_11
REMARK    5  A    between atoms: C_11  and  C_12
REMARK    6  A    between atoms: C_11  and  C_18
REMARK    7  A    between atoms: N_20  and  C_21
REMARK    8  A    between atoms: C_25  and  C_27
REMARK    9  A    between atoms: C_27  and  N_28
REMARK   10  A    between atoms: C_29  and  C_31
REMARK                            x       y       z     vdW  Elec       q    Type
REMARK                         _______ _______ _______ _____ _____    ______ ____
ROOT
ATOM      1  N   UNL     1      10.413  -6.163  -2.858  0.00  0.00    +0.000 N 
ATOM      2  C   UNL     1      11.499  -6.898  -3.453  0.00  0.00    +0.000 C 
ATOM      3  O   UNL     1      11.763  -6.757  -4.677  0.00  0.00    +0.000 OA
ENDROOT
BRANCH   1   9
ATOM      4  C   UNL     1      10.843  -5.598  -0.496  0.00  0.00    +0.000 A 
ATOM      5  C   UNL     1      10.549  -5.776   0.866  0.00  0.00    +0.000 A 
ATOM      6  C   UNL     1       9.542  -6.659   1.262  0.00  0.00    +0.000 A 
ATOM      7  C   UNL     1       8.821  -7.372   0.302  0.00  0.00    +0.000 A 
ATOM      8  C   UNL     1       9.107  -7.203  -1.054  0.00  0.00    +0.000 A 
ATOM      9  C   UNL     1      10.113  -6.316  -1.459  0.00  0.00    +0.000 A 
BRANCH   4  10
ATOM     10  O   UNL     1      11.850  -4.717  -0.913  0.00  0.00    +0.000 OA
BRANCH  10  12
ATOM     11  C   UNL     1      13.195  -2.721  -1.043  0.00  0.00    +0.000 C 
ATOM     12  C   UNL     1      12.020  -3.412  -0.372  0.00  0.00    +0.000 C 
ENDBRANCH  10  12
ENDBRANCH   4  10
ENDBRANCH   1   9
BRANCH   1  13
ATOM     13  C   UNL     1       9.622  -5.259  -3.699  0.00  0.00    +0.000 C 
BRANCH  13  14
ATOM     14  C   UNL     1       9.417  -3.907  -3.075  0.00  0.00    +0.000 A 
ATOM     15  C   UNL     1       8.502  -3.708  -2.031  0.00  0.00    +0.000 A 
ATOM     16  C   UNL     1       8.382  -2.441  -1.457  0.00  0.00    +0.000 A 
ATOM     17  N   UNL     1       9.152  -1.414  -1.905  0.00  0.00    +0.000 NA
ATOM     18  C   UNL     1      10.053  -1.585  -2.910  0.00  0.00    +0.000 A 
ATOM     19  C   UNL     1      10.204  -2.838  -3.509  0.00  0.00    +0.000 A 
ENDBRANCH  13  14
BRANCH  13  20
ATOM     20  C   UNL     1       8.377  -5.908  -4.227  0.00  0.00    +0.000 C 
ATOM     21  O   UNL     1       8.405  -6.576  -5.296  0.00  0.00    +0.000 OA
ATOM     22  N   UNL     1       7.148  -5.723  -3.517  0.00  0.00    +0.000 NA
BRANCH  22  23
ATOM     23  C   UNL     1       5.852  -6.248  -3.940  0.00  0.00    +0.000 C 
ATOM     24  C   UNL     1       5.846  -7.764  -3.869  0.00  0.00    +0.000 C 
ATOM     25  C   UNL     1       4.782  -5.715  -3.011  0.00  0.00    +0.000 C 
ATOM     26  C   UNL     1       5.536  -5.798  -5.355  0.00  0.00    +0.000 C 
ENDBRANCH  22  23
ENDBRANCH  13  20
ENDBRANCH   1  13
BRANCH   2  27
ATOM     27  C   UNL     1      12.316  -7.859  -2.651  0.00  0.00    +0.000 C 
BRANCH  27  28
ATOM     28  N   UNL     1      11.773  -9.199  -2.798  0.00  0.00    +0.000 NA
ATOM     29  C   UNL     1      12.418 -10.196  -3.591  0.00  0.00    +0.000 C 
ATOM     30  O   UNL     1      13.474  -9.922  -4.224  0.00  0.00    +0.000 OA
BRANCH  29  31
ATOM     31  C   UNL     1      11.853 -11.547  -3.668  0.00  0.00    +0.000 A 
ATOM     32  C   UNL     1      12.511 -12.709  -3.325  0.00  0.00    +0.000 A 
ATOM     33  C   UNL     1      11.591 -13.717  -3.558  0.00  0.00    +0.000 A 
ATOM     34  C   UNL     1      10.443 -13.104  -4.028  0.00  0.00    +0.000 A 
ATOM     35  O   UNL     1      10.640 -11.808  -4.080  0.00  0.00    +0.000 OA
ENDBRANCH  29  31
ENDBRANCH  27  28
ENDBRANCH   2  27
TORSDOF 10
ENDMDL
MODEL 3
REMARK minimizedAffinity -5.54757071
REMARK minimizedRMSD -1
REMARK  Name = imageData/pubchem/ligands/644391_decoys.pdb
REMARK  10 active torsions:
REMARK  status: ('A' for Active; 'I' for Inactive)
REMARK    1  A    between atoms: C_2  and  O_3
REMARK    2  A    between atoms: O_3  and  C_4
REMARK    3  A    between atoms: C_9  and  N_10
REMARK    4  A    between atoms: N_10  and  C_11
REMARK    5  A    between atoms: C_11  and  C_12
REMARK    6  A    between atoms: C_11  and  C_18
REMARK    7  A    between atoms: N_20  and  C_21
REMARK    8  A    between atoms: C_25  and  C_27
REMARK    9  A    between atoms: C_27  and  N_28
REMARK   10  A    between atoms: C_29  and  C_31
REMARK                            x       y       z     vdW  Elec       q    Type
REMARK                         _______ _______ _______ _____ _____    ______ ____
ROOT
ATOM      1  N   UNL     1       9.087  -6.045  -2.801  0.00  0.00    +0.000 N 
ATOM      2  C   UNL     1       8.857  -4.737  -3.357  0.00  0.00    +0.000 C 
ATOM      3  O   UNL     1       8.625  -4.604  -4.588  0.00  0.00    +0.000 OA
ENDROOT
BRANCH   1   9
ATOM      4  C   UNL     1       8.282  -6.186  -0.474  0.00  0.00    +0.000 A 
ATOM      5  C   UNL     1       8.555  -6.320   0.897  0.00  0.00    +0.000 A 
ATOM      6  C   UNL     1       9.871  -6.466   1.344  0.00  0.00    +0.000 A 
ATOM      7  C   UNL     1      10.923  -6.478   0.427  0.00  0.00    +0.000 A 
ATOM      8  C   UNL     1      10.661  -6.344  -0.938  0.00  0.00    +0.000 A 
ATOM      9  C   UNL     1       9.344  -6.201  -1.394  0.00  0.00    +0.000 A 
BRANCH   4  10
ATOM     10  O   UNL     1       6.970  -6.039  -0.942  0.00  0.00    +0.000 OA
BRANCH  10  12
ATOM     11  C   UNL     1       4.652  -6.581  -1.321  0.00  0.00    +0.000 C 
ATOM     12  C   UNL     1       5.871  -6.792  -0.441  0.00  0.00    +0.000 C 
ENDBRANCH  10  12
ENDBRANCH   4  10
ENDBRANCH   1   9
BRANCH   1  13
ATOM     13  C   UNL     1       9.053  -7.211  -3.690  0.00  0.00    +0.000 C 
BRANCH  13  14
ATOM     14  C   UNL     1       8.043  -8.242  -3.267  0.00  0.00    +0.000 A 
ATOM     15  C   UNL     1       8.289  -9.119  -2.201  0.00  0.00    +0.000 A 
ATOM     16  C   UNL     1       7.300 -10.029  -1.821  0.00  0.00    +0.000 A 
ATOM     17  N   UNL     1       6.109 -10.055  -2.476  0.00  0.00    +0.000 NA
ATOM     18  C   UNL     1       5.845  -9.207  -3.507  0.00  0.00    +0.000 A 
ATOM     19  C   UNL     1       6.808  -8.282  -3.917  0.00  0.00    +0.000 A 
ENDBRANCH  13  14
BRANCH  13  20
ATOM     20  C   UNL     1      10.421  -7.749  -3.985  0.00  0.00    +0.000 C 
ATOM     21  O   UNL     1      11.353  -6.975  -4.337  0.00  0.00    +0.000 OA
ATOM     22  N   UNL     1      10.642  -9.161  -3.899  0.00  0.00    +0.000 NA
BRANCH  22  23
ATOM     23  C   UNL     1      11.903  -9.830  -4.208  0.00  0.00    +0.000 C 
ATOM     24  C   UNL     1      11.853 -11.283  -3.773  0.00  0.00    +0.000 C 
ATOM     25  C   UNL     1      12.129  -9.779  -5.704  0.00  0.00    +0.000 C 
ATOM     26  C   UNL     1      13.057  -9.125  -3.518  0.00  0.00    +0.000 C 
ENDBRANCH  22  23
ENDBRANCH  13  20
ENDBRANCH   1  13
BRANCH   2  27
ATOM     27  C   UNL     1       8.915  -3.512  -2.504  0.00  0.00    +0.000 C 
BRANCH  27  28
ATOM     28  N   UNL     1      10.270  -2.988  -2.496  0.00  0.00    +0.000 NA
ATOM     29  C   UNL     1      10.994  -2.773  -1.284  0.00  0.00    +0.000 C 
ATOM     30  O   UNL     1      10.452  -3.004  -0.169  0.00  0.00    +0.000 OA
BRANCH  29  31
ATOM     31  C   UNL     1      12.376  -2.287  -1.335  0.00  0.00    +0.000 A 
ATOM     32  C   UNL     1      13.449  -2.859  -0.685  0.00  0.00    +0.000 A 
ATOM     33  C   UNL     1      14.532  -2.066  -1.026  0.00  0.00    +0.000 A 
ATOM     34  C   UNL     1      14.046  -1.069  -1.854  0.00  0.00    +0.000 A 
ATOM     35  O   UNL     1      12.755  -1.235  -2.014  0.00  0.00    +0.000 OA
ENDBRANCH  29  31
ENDBRANCH  27  28
ENDBRANCH   2  27
TORSDOF 10
ENDMDL
MODEL 4
REMARK minimizedAffinity -5.39129639
REMARK minimizedRMSD -1
REMARK  Name = imageData/pubchem/ligands/644391_decoys.pdb
REMARK  10 active torsions:
REMARK  status: ('A' for Active; 'I' for Inactive)
REMARK    1  A    between atoms: C_2  and  O_3
REMARK    2  A    between atoms: O_3  and  C_4
REMARK    3  A    between atoms: C_9  and  N_10
REMARK    4  A    between atoms: N_10  and  C_11
REMARK    5  A    between atoms: C_11  and  C_12
REMARK    6  A    between atoms: C_11  and  C_18
REMARK    7  A    between atoms: N_20  and  C_21
REMARK    8  A    between atoms: C_25  and  C_27
REMARK    9  A    between atoms: C_27  and  N_28
REMARK   10  A    between atoms: C_29  and  C_31
REMARK                            x       y       z     vdW  Elec       q    Type
REMARK                         _______ _______ _______ _____ _____    ______ ____
ROOT
ATOM      1  N   UNL     1      10.418  -4.121  -4.539  0.00  0.00    +0.000 N 
ATOM      2  C   UNL     1       9.629  -3.606  -5.628  0.00  0.00    +0.000 C 
ATOM      3  O   UNL     1       8.944  -4.387  -6.340  0.00  0.00    +0.000 OA
ENDROOT
BRANCH   1   9
ATOM      4  C   UNL     1      10.573  -2.467  -2.717  0.00  0.00    +0.000 A 
ATOM      5  C   UNL     1      11.346  -1.588  -1.940  0.00  0.00    +0.000 A 
ATOM      6  C   UNL     1      12.721  -1.472  -2.161  0.00  0.00    +0.000 A 
ATOM      7  C   UNL     1      13.334  -2.231  -3.160  0.00  0.00    +0.000 A 
ATOM      8  C   UNL     1      12.574  -3.106  -3.938  0.00  0.00    +0.000 A 
ATOM      9  C   UNL     1      11.195  -3.231  -3.720  0.00  0.00    +0.000 A 
BRANCH   4  10
ATOM     10  O   UNL     1       9.194  -2.597  -2.510  0.00  0.00    +0.000 OA
BRANCH  10  12
ATOM     11  C   UNL     1       7.748  -1.180  -1.203  0.00  0.00    +0.000 C 
ATOM     12  C   UNL     1       8.576  -2.452  -1.237  0.00  0.00    +0.000 C 
ENDBRANCH  10  12
ENDBRANCH   4  10
ENDBRANCH   1   9
BRANCH   1  13
ATOM     13  C   UNL     1      10.414  -5.566  -4.281  0.00  0.00    +0.000 C 
BRANCH  13  14
ATOM     14  C   UNL     1      10.474  -5.899  -2.816  0.00  0.00    +0.000 A 
ATOM     15  C   UNL     1      11.694  -6.121  -2.161  0.00  0.00    +0.000 A 
ATOM     16  C   UNL     1      11.697  -6.385  -0.791  0.00  0.00    +0.000 A 
ATOM     17  N   UNL     1      10.526  -6.419  -0.099  0.00  0.00    +0.000 NA
ATOM     18  C   UNL     1       9.332  -6.198  -0.712  0.00  0.00    +0.000 A 
ATOM     19  C   UNL     1       9.286  -5.929  -2.082  0.00  0.00    +0.000 A 
ENDBRANCH  13  14
BRANCH  13  20
ATOM     20  C   UNL     1      11.395  -6.305  -5.140  0.00  0.00    +0.000 C 
ATOM     21  O   UNL     1      11.152  -7.479  -5.530  0.00  0.00    +0.000 OA
ATOM     22  N   UNL     1      12.633  -5.669  -5.478  0.00  0.00    +0.000 NA
BRANCH  22  23
ATOM     23  C   UNL     1      13.703  -6.285  -6.258  0.00  0.00    +0.000 C 
ATOM     24  C   UNL     1      13.252  -6.510  -7.691  0.00  0.00    +0.000 C 
ATOM     25  C   UNL     1      14.899  -5.358  -6.267  0.00  0.00    +0.000 C 
ATOM     26  C   UNL     1      14.117  -7.607  -5.636  0.00  0.00    +0.000 C 
ENDBRANCH  22  23
ENDBRANCH  13  20
ENDBRANCH   1  13
BRANCH   2  27
ATOM     27  C   UNL     1       9.624  -2.148  -5.957  0.00  0.00    +0.000 C 
BRANCH  27  28
ATOM     28  N   UNL     1      10.725  -1.848  -6.856  0.00  0.00    +0.000 NA
ATOM     29  C   UNL     1      11.586  -0.727  -6.655  0.00  0.00    +0.000 C 
ATOM     30  O   UNL     1      11.387   0.065  -5.694  0.00  0.00    +0.000 OA
BRANCH  29  31
ATOM     31  C   UNL     1      12.712  -0.497  -7.566  0.00  0.00    +0.000 A 
ATOM     32  C   UNL     1      12.639   0.155  -8.778  0.00  0.00    +0.000 A 
ATOM     33  C   UNL     1      13.933   0.131  -9.271  0.00  0.00    +0.000 A 
ATOM     34  C   UNL     1      14.701  -0.534  -8.330  0.00  0.00    +0.000 A 
ATOM     35  O   UNL     1      13.936  -0.893  -7.328  0.00  0.00    +0.000 OA
ENDBRANCH  29  31
ENDBRANCH  27  28
ENDBRANCH   2  27
TORSDOF 10
ENDMDL
MODEL 5
REMARK minimizedAffinity -5.30919886
REMARK minimizedRMSD -1
REMARK  Name = imageData/pubchem/ligands/644391_decoys.pdb
REMARK  10 active torsions:
REMARK  status: ('A' for Active; 'I' for Inactive)
REMARK    1  A    between atoms: C_2  and  O_3
REMARK    2  A    between atoms: O_3  and  C_4
REMARK    3  A    between atoms: C_9  and  N_10
REMARK    4  A    between atoms: N_10  and  C_11
REMARK    5  A    between atoms: C_11  and  C_12
REMARK    6  A    between atoms: C_11  and  C_18
REMARK    7  A    between atoms: N_20  and  C_21
REMARK    8  A    between atoms: C_25  and  C_27
REMARK    9  A    between atoms: C_27  and  N_28
REMARK   10  A    between atoms: C_29  and  C_31
REMARK                            x       y       z     vdW  Elec       q    Type
REMARK                         _______ _______ _______ _____ _____    ______ ____
ROOT
ATOM      1  N   UNL     1       9.205  -5.398  -3.369  0.00  0.00    +0.000 N 
ATOM      2  C   UNL     1       7.796  -5.531  -3.632  0.00  0.00    +0.000 C 
ATOM      3  O   UNL     1       7.381  -5.652  -4.815  0.00  0.00    +0.000 OA
ENDROOT
BRANCH   1   9
ATOM      4  C   UNL     1       9.609  -4.030  -1.358  0.00  0.00    +0.000 A 
ATOM      5  C   UNL     1      10.099  -3.917  -0.046  0.00  0.00    +0.000 A 
ATOM      6  C   UNL     1      10.658  -5.025   0.597  0.00  0.00    +0.000 A 
ATOM      7  C   UNL     1      10.732  -6.252  -0.065  0.00  0.00    +0.000 A 
ATOM      8  C   UNL     1      10.248  -6.373  -1.369  0.00  0.00    +0.000 A 
ATOM      9  C   UNL     1       9.683  -5.268  -2.019  0.00  0.00    +0.000 A 
BRANCH   4  10
ATOM     10  O   UNL     1       9.045  -2.931  -2.019  0.00  0.00    +0.000 OA
BRANCH  10  12
ATOM     11  C   UNL     1       7.753  -1.114  -1.102  0.00  0.00    +0.000 C 
ATOM     12  C   UNL     1       9.128  -1.596  -1.531  0.00  0.00    +0.000 C 
ENDBRANCH  10  12
ENDBRANCH   4  10
ENDBRANCH   1   9
BRANCH   1  13
ATOM     13  C   UNL     1      10.142  -5.398  -4.498  0.00  0.00    +0.000 C 
BRANCH  13  14
ATOM     14  C   UNL     1      10.956  -6.659  -4.585  0.00  0.00    +0.000 A 
ATOM     15  C   UNL     1      10.354  -7.926  -4.571  0.00  0.00    +0.000 A 
ATOM     16  C   UNL     1      11.152  -9.064  -4.697  0.00  0.00    +0.000 A 
ATOM     17  N   UNL     1      12.499  -8.941  -4.840  0.00  0.00    +0.000 NA
ATOM     18  C   UNL     1      13.103  -7.722  -4.865  0.00  0.00    +0.000 A 
ATOM     19  C   UNL     1      12.340  -6.559  -4.742  0.00  0.00    +0.000 A 
ENDBRANCH  13  14
BRANCH  13  20
ATOM     20  C   UNL     1      10.932  -4.127  -4.589  0.00  0.00    +0.000 C 
ATOM     21  O   UNL     1      10.754  -3.327  -5.547  0.00  0.00    +0.000 OA
ATOM     22  N   UNL     1      11.921  -3.856  -3.590  0.00  0.00    +0.000 NA
BRANCH  22  23
ATOM     23  C   UNL     1      12.799  -2.689  -3.579  0.00  0.00    +0.000 C 
ATOM     24  C   UNL     1      13.855  -2.811  -4.663  0.00  0.00    +0.000 C 
ATOM     25  C   UNL     1      11.971  -1.451  -3.846  0.00  0.00    +0.000 C 
ATOM     26  C   UNL     1      13.468  -2.544  -2.224  0.00  0.00    +0.000 C 
ENDBRANCH  22  23
ENDBRANCH  13  20
ENDBRANCH   1  13
BRANCH   2  27
ATOM     27  C   UNL     1       6.795  -5.503  -2.523  0.00  0.00    +0.000 C 
BRANCH  27  28
ATOM     28  N   UNL     1       6.628  -6.842  -1.984  0.00  0.00    +0.000 NA
ATOM     29  C   UNL     1       6.750  -7.119  -0.588  0.00  0.00    +0.000 C 
ATOM     30  O   UNL     1       7.045  -6.198   0.221  0.00  0.00    +0.000 OA
BRANCH  29  31
ATOM     31  C   UNL     1       6.525  -8.480  -0.091  0.00  0.00    +0.000 A 
ATOM     32  C   UNL     1       7.461  -9.492  -0.082  0.00  0.00    +0.000 A 
ATOM     33  C   UNL     1       6.803 -10.577   0.473  0.00  0.00    +0.000 A 
ATOM     34  C   UNL     1       5.516 -10.153   0.761  0.00  0.00    +0.000 A 
ATOM     35  O   UNL     1       5.390  -8.896   0.409  0.00  0.00    +0.000 OA
ENDBRANCH  29  31
ENDBRANCH  27  28
ENDBRANCH   2  27
TORSDOF 10
ENDMDL
MODEL 6
REMARK minimizedAffinity -5.26355457
REMARK minimizedRMSD -1
REMARK  Name = imageData/pubchem/ligands/644391_decoys.pdb
REMARK  10 active torsions:
REMARK  status: ('A' for Active; 'I' for Inactive)
REMARK    1  A    between atoms: C_2  and  O_3
REMARK    2  A    between atoms: O_3  and  C_4
REMARK    3  A    between atoms: C_9  and  N_10
REMARK    4  A    between atoms: N_10  and  C_11
REMARK    5  A    between atoms: C_11  and  C_12
REMARK    6  A    between atoms: C_11  and  C_18
REMARK    7  A    between atoms: N_20  and  C_21
REMARK    8  A    between atoms: C_25  and  C_27
REMARK    9  A    between atoms: C_27  and  N_28
REMARK   10  A    between atoms: C_29  and  C_31
REMARK                            x       y       z     vdW  Elec       q    Type
REMARK                         _______ _______ _______ _____ _____    ______ ____
ROOT
ATOM      1  N   UNL     1      11.118  -4.449  -4.124  0.00  0.00    +0.000 N 
ATOM      2  C   UNL     1      11.580  -5.672  -3.520  0.00  0.00    +0.000 C 
ATOM      3  O   UNL     1      11.984  -6.622  -4.241  0.00  0.00    +0.000 OA
ENDROOT
BRANCH   1   9
ATOM      4  C   UNL     1      11.589  -2.482  -2.713  0.00  0.00    +0.000 A 
ATOM      5  C   UNL     1      11.125  -1.436  -1.898  0.00  0.00    +0.000 A 
ATOM      6  C   UNL     1       9.757  -1.268  -1.674  0.00  0.00    +0.000 A 
ATOM      7  C   UNL     1       8.840  -2.143  -2.260  0.00  0.00    +0.000 A 
ATOM      8  C   UNL     1       9.292  -3.187  -3.070  0.00  0.00    +0.000 A 
ATOM      9  C   UNL     1      10.662  -3.359  -3.303  0.00  0.00    +0.000 A 
BRANCH   4  10
ATOM     10  O   UNL     1      12.957  -2.667  -2.950  0.00  0.00    +0.000 OA
BRANCH  10  12
ATOM     11  C   UNL     1      14.743  -1.900  -1.525  0.00  0.00    +0.000 C 
ATOM     12  C   UNL     1      13.927  -1.639  -2.778  0.00  0.00    +0.000 C 
ENDBRANCH  10  12
ENDBRANCH   4  10
ENDBRANCH   1   9
BRANCH   1  13
ATOM     13  C   UNL     1      11.122  -4.334  -5.587  0.00  0.00    +0.000 C 
BRANCH  13  14
ATOM     14  C   UNL     1      11.439  -2.945  -6.065  0.00  0.00    +0.000 A 
ATOM     15  C   UNL     1      10.433  -1.990  -6.273  0.00  0.00    +0.000 A 
ATOM     16  C   UNL     1      10.785  -0.701  -6.676  0.00  0.00    +0.000 A 
ATOM     17  N   UNL     1      12.093  -0.376  -6.857  0.00  0.00    +0.000 NA
ATOM     18  C   UNL     1      13.086  -1.283  -6.653  0.00  0.00    +0.000 A 
ATOM     19  C   UNL     1      12.775  -2.583  -6.248  0.00  0.00    +0.000 A 
ENDBRANCH  13  14
BRANCH  13  20
ATOM     20  C   UNL     1       9.912  -4.960  -6.214  0.00  0.00    +0.000 C 
ATOM     21  O   UNL     1       9.864  -5.160  -7.459  0.00  0.00    +0.000 OA
ATOM     22  N   UNL     1       8.794  -5.289  -5.382  0.00  0.00    +0.000 NA
BRANCH  22  23
ATOM     23  C   UNL     1       7.534  -5.851  -5.859  0.00  0.00    +0.000 C 
ATOM     24  C   UNL     1       7.770  -7.198  -6.519  0.00  0.00    +0.000 C 
ATOM     25  C   UNL     1       6.606  -6.046  -4.679  0.00  0.00    +0.000 C 
ATOM     26  C   UNL     1       6.873  -4.904  -6.845  0.00  0.00    +0.000 C 
ENDBRANCH  22  23
ENDBRANCH  13  20
ENDBRANCH   1  13
BRANCH   2  27
ATOM     27  C   UNL     1      11.565  -5.856  -2.037  0.00  0.00    +0.000 C 
BRANCH  27  28
ATOM     28  N   UNL     1      10.457  -6.719  -1.665  0.00  0.00    +0.000 NA
ATOM     29  C   UNL     1       9.444  -6.302  -0.749  0.00  0.00    +0.000 C 
ATOM     30  O   UNL     1       9.506  -5.166  -0.204  0.00  0.00    +0.000 OA
BRANCH  29  31
ATOM     31  C   UNL     1       8.322  -7.195  -0.444  0.00  0.00    +0.000 A 
ATOM     32  C   UNL     1       6.992  -6.832  -0.429  0.00  0.00    +0.000 A 
ATOM     33  C   UNL     1       6.313  -7.991  -0.095  0.00  0.00    +0.000 A 
ATOM     34  C   UNL     1       7.271  -8.976   0.073  0.00  0.00    +0.000 A 
ATOM     35  O   UNL     1       8.458  -8.461  -0.144  0.00  0.00    +0.000 OA
ENDBRANCH  29  31
ENDBRANCH  27  28
ENDBRANCH   2  27
TORSDOF 10
ENDMDL
MODEL 7
REMARK minimizedAffinity -5.17035294
REMARK minimizedRMSD -1
REMARK  Name = imageData/pubchem/ligands/644391_decoys.pdb
REMARK  10 active torsions:
REMARK  status: ('A' for Active; 'I' for Inactive)
REMARK    1  A    between atoms: C_2  and  O_3
REMARK    2  A    between atoms: O_3  and  C_4
REMARK    3  A    between atoms: C_9  and  N_10
REMARK    4  A    between atoms: N_10  and  C_11
REMARK    5  A    between atoms: C_11  and  C_12
REMARK    6  A    between atoms: C_11  and  C_18
REMARK    7  A    between atoms: N_20  and  C_21
REMARK    8  A    between atoms: C_25  and  C_27
REMARK    9  A    between atoms: C_27  and  N_28
REMARK   10  A    between atoms: C_29  and  C_31
REMARK                            x       y       z     vdW  Elec       q    Type
REMARK                         _______ _______ _______ _____ _____    ______ ____
ROOT
ATOM      1  N   UNL     1       9.440  -5.312  -3.475  0.00  0.00    +0.000 N 
ATOM      2  C   UNL     1       8.023  -5.405  -3.713  0.00  0.00    +0.000 C 
ATOM      3  O   UNL     1       7.585  -5.533  -4.887  0.00  0.00    +0.000 OA
ENDROOT
BRANCH   1   9
ATOM      4  C   UNL     1       9.993  -3.910  -1.523  0.00  0.00    +0.000 A 
ATOM      5  C   UNL     1      10.507  -3.793  -0.221  0.00  0.00    +0.000 A 
ATOM      6  C   UNL     1      10.968  -4.922   0.461  0.00  0.00    +0.000 A 
ATOM      7  C   UNL     1      10.920  -6.176  -0.151  0.00  0.00    +0.000 A 
ATOM      8  C   UNL     1      10.412  -6.301  -1.446  0.00  0.00    +0.000 A 
ATOM      9  C   UNL     1       9.944  -5.175  -2.135  0.00  0.00    +0.000 A 
BRANCH   4  10
ATOM     10  O   UNL     1       9.525  -2.790  -2.223  0.00  0.00    +0.000 OA
BRANCH  10  12
ATOM     11  C   UNL     1       7.834  -1.380  -1.242  0.00  0.00    +0.000 C 
ATOM     12  C   UNL     1       9.299  -1.524  -1.613  0.00  0.00    +0.000 C 
ENDBRANCH  10  12
ENDBRANCH   4  10
ENDBRANCH   1   9
BRANCH   1  13
ATOM     13  C   UNL     1      10.358  -5.360  -4.619  0.00  0.00    +0.000 C 
BRANCH  13  14
ATOM     14  C   UNL     1      11.139  -6.643  -4.690  0.00  0.00    +0.000 A 
ATOM     15  C   UNL     1      10.508  -7.893  -4.628  0.00  0.00    +0.000 A 
ATOM     16  C   UNL     1      11.275  -9.054  -4.742  0.00  0.00    +0.000 A 
ATOM     17  N   UNL     1      12.621  -8.968  -4.919  0.00  0.00    +0.000 NA
ATOM     18  C   UNL     1      13.253  -7.765  -4.991  0.00  0.00    +0.000 A 
ATOM     19  C   UNL     1      12.521  -6.581  -4.882  0.00  0.00    +0.000 A 
ENDBRANCH  13  14
BRANCH  13  20
ATOM     20  C   UNL     1      11.177  -4.111  -4.750  0.00  0.00    +0.000 C 
ATOM     21  O   UNL     1      12.205  -3.939  -4.041  0.00  0.00    +0.000 OA
ATOM     22  N   UNL     1      10.747  -3.098  -5.666  0.00  0.00    +0.000 NA
BRANCH  22  23
ATOM     23  C   UNL     1      11.412  -1.812  -5.861  0.00  0.00    +0.000 C 
ATOM     24  C   UNL     1      11.530  -1.071  -4.541  0.00  0.00    +0.000 C 
ATOM     25  C   UNL     1      12.803  -2.057  -6.405  0.00  0.00    +0.000 C 
ATOM     26  C   UNL     1      10.642  -0.965  -6.858  0.00  0.00    +0.000 C 
ENDBRANCH  22  23
ENDBRANCH  13  20
ENDBRANCH   1  13
BRANCH   2  27
ATOM     27  C   UNL     1       7.042  -5.327  -2.589  0.00  0.00    +0.000 C 
BRANCH  27  28
ATOM     28  N   UNL     1       6.806  -6.658  -2.056  0.00  0.00    +0.000 NA
ATOM     29  C   UNL     1       6.901  -6.946  -0.661  0.00  0.00    +0.000 C 
ATOM     30  O   UNL     1       7.234  -6.043   0.154  0.00  0.00    +0.000 OA
BRANCH  29  31
ATOM     31  C   UNL     1       6.606  -8.296  -0.171  0.00  0.00    +0.000 A 
ATOM     32  C   UNL     1       7.530  -9.304  -0.001  0.00  0.00    +0.000 A 
ATOM     33  C   UNL     1       6.798 -10.378   0.476  0.00  0.00    +0.000 A 
ATOM     34  C   UNL     1       5.483  -9.953   0.562  0.00  0.00    +0.000 A 
ATOM     35  O   UNL     1       5.410  -8.704   0.166  0.00  0.00    +0.000 OA
ENDBRANCH  29  31
ENDBRANCH  27  28
ENDBRANCH   2  27
TORSDOF 10
ENDMDL
MODEL 8
REMARK minimizedAffinity -5.16667271
REMARK minimizedRMSD -1
REMARK  Name = imageData/pubchem/ligands/644391_decoys.pdb
REMARK  10 active torsions:
REMARK  status: ('A' for Active; 'I' for Inactive)
REMARK    1  A    between atoms: C_2  and  O_3
REMARK    2  A    between atoms: O_3  and  C_4
REMARK    3  A    between atoms: C_9  and  N_10
REMARK    4  A    between atoms: N_10  and  C_11
REMARK    5  A    between atoms: C_11  and  C_12
REMARK    6  A    between atoms: C_11  and  C_18
REMARK    7  A    between atoms: N_20  and  C_21
REMARK    8  A    between atoms: C_25  and  C_27
REMARK    9  A    between atoms: C_27  and  N_28
REMARK   10  A    between atoms: C_29  and  C_31
REMARK                            x       y       z     vdW  Elec       q    Type
REMARK                         _______ _______ _______ _____ _____    ______ ____
ROOT
ATOM      1  N   UNL     1       9.917  -4.183  -4.012  0.00  0.00    +0.000 N 
ATOM      2  C   UNL     1       8.697  -4.743  -3.491  0.00  0.00    +0.000 C 
ATOM      3  O   UNL     1       7.914  -5.373  -4.250  0.00  0.00    +0.000 OA
ENDROOT
BRANCH   1   9
ATOM      4  C   UNL     1      11.741  -4.170  -2.353  0.00  0.00    +0.000 A 
ATOM      5  C   UNL     1      12.598  -3.457  -1.499  0.00  0.00    +0.000 A 
ATOM      6  C   UNL     1      12.533  -2.063  -1.437  0.00  0.00    +0.000 A 
ATOM      7  C   UNL     1      11.612  -1.370  -2.225  0.00  0.00    +0.000 A 
ATOM      8  C   UNL     1      10.755  -2.071  -3.076  0.00  0.00    +0.000 A 
ATOM      9  C   UNL     1      10.817  -3.469  -3.147  0.00  0.00    +0.000 A 
BRANCH   4  10
ATOM     10  O   UNL     1      11.790  -5.569  -2.429  0.00  0.00    +0.000 OA
BRANCH  10  12
ATOM     11  C   UNL     1      10.529  -7.548  -1.883  0.00  0.00    +0.000 C 
ATOM     12  C   UNL     1      11.406  -6.425  -1.360  0.00  0.00    +0.000 C 
ENDBRANCH  10  12
ENDBRANCH   4  10
ENDBRANCH   1   9
BRANCH   1  13
ATOM     13  C   UNL     1      10.224  -4.353  -5.437  0.00  0.00    +0.000 C 
BRANCH  13  14
ATOM     14  C   UNL     1      11.700  -4.359  -5.721  0.00  0.00    +0.000 A 
ATOM     15  C   UNL     1      12.401  -3.178  -6.003  0.00  0.00    +0.000 A 
ATOM     16  C   UNL     1      13.779  -3.233  -6.217  0.00  0.00    +0.000 A 
ATOM     17  N   UNL     1      14.434  -4.423  -6.145  0.00  0.00    +0.000 NA
ATOM     18  C   UNL     1      13.776  -5.580  -5.864  0.00  0.00    +0.000 A 
ATOM     19  C   UNL     1      12.397  -5.567  -5.642  0.00  0.00    +0.000 A 
ENDBRANCH  13  14
BRANCH  13  20
ATOM     20  C   UNL     1       9.414  -3.443  -6.311  0.00  0.00    +0.000 C 
ATOM     21  O   UNL     1       9.178  -2.255  -5.960  0.00  0.00    +0.000 OA
ATOM     22  N   UNL     1       8.878  -3.959  -7.535  0.00  0.00    +0.000 NA
BRANCH  22  23
ATOM     23  C   UNL     1       8.029  -3.209  -8.456  0.00  0.00    +0.000 C 
ATOM     24  C   UNL     1       8.782  -2.018  -9.020  0.00  0.00    +0.000 C 
ATOM     25  C   UNL     1       7.629  -4.116  -9.601  0.00  0.00    +0.000 C 
ATOM     26  C   UNL     1       6.772  -2.735  -7.749  0.00  0.00    +0.000 C 
ENDBRANCH  22  23
ENDBRANCH  13  20
ENDBRANCH   1  13
BRANCH   2  27
ATOM     27  C   UNL     1       8.317  -4.570  -2.056  0.00  0.00    +0.000 C 
BRANCH  27  28
ATOM     28  N   UNL     1       7.303  -5.548  -1.700  0.00  0.00    +0.000 NA
ATOM     29  C   UNL     1       7.264  -6.167  -0.414  0.00  0.00    +0.000 C 
ATOM     30  O   UNL     1       8.146  -5.902   0.448  0.00  0.00    +0.000 OA
BRANCH  29  31
ATOM     31  C   UNL     1       6.192  -7.113  -0.090  0.00  0.00    +0.000 A 
ATOM     32  C   UNL     1       6.298  -8.487  -0.131  0.00  0.00    +0.000 A 
ATOM     33  C   UNL     1       5.050  -8.949   0.252  0.00  0.00    +0.000 A 
ATOM     34  C   UNL     1       4.272  -7.830   0.496  0.00  0.00    +0.000 A 
ATOM     35  O   UNL     1       4.990  -6.754   0.280  0.00  0.00    +0.000 OA
ENDBRANCH  29  31
ENDBRANCH  27  28
ENDBRANCH   2  27
TORSDOF 10
ENDMDL
MODEL 9
REMARK minimizedAffinity -5.14212084
REMARK minimizedRMSD -1
REMARK  Name = imageData/pubchem/ligands/644391_decoys.pdb
REMARK  10 active torsions:
REMARK  status: ('A' for Active; 'I' for Inactive)
REMARK    1  A    between atoms: C_2  and  O_3
REMARK    2  A    between atoms: O_3  and  C_4
REMARK    3  A    between atoms: C_9  and  N_10
REMARK    4  A    between atoms: N_10  and  C_11
REMARK    5  A    between atoms: C_11  and  C_12
REMARK    6  A    between atoms: C_11  and  C_18
REMARK    7  A    between atoms: N_20  and  C_21
REMARK    8  A    between atoms: C_25  and  C_27
REMARK    9  A    between atoms: C_27  and  N_28
REMARK   10  A    between atoms: C_29  and  C_31
REMARK                            x       y       z     vdW  Elec       q    Type
REMARK                         _______ _______ _______ _____ _____    ______ ____
ROOT
ATOM      1  N   UNL     1      10.083  -4.746  -4.269  0.00  0.00    +0.000 N 
ATOM      2  C   UNL     1       8.892  -5.216  -4.926  0.00  0.00    +0.000 C 
ATOM      3  O   UNL     1       7.801  -5.270  -4.297  0.00  0.00    +0.000 OA
ENDROOT
BRANCH   1   9
ATOM      4  C   UNL     1      11.616  -3.566  -5.799  0.00  0.00    +0.000 A 
ATOM      5  C   UNL     1      12.828  -3.525  -6.507  0.00  0.00    +0.000 A 
ATOM      6  C   UNL     1      13.741  -4.577  -6.406  0.00  0.00    +0.000 A 
ATOM      7  C   UNL     1      13.451  -5.679  -5.599  0.00  0.00    +0.000 A 
ATOM      8  C   UNL     1      12.247  -5.729  -4.893  0.00  0.00    +0.000 A 
ATOM      9  C   UNL     1      11.328  -4.675  -4.986  0.00  0.00    +0.000 A 
BRANCH   4  10
ATOM     10  O   UNL     1      10.688  -2.520  -5.887  0.00  0.00    +0.000 OA
BRANCH  10  12
ATOM     11  C   UNL     1      11.235  -0.181  -6.087  0.00  0.00    +0.000 C 
ATOM     12  C   UNL     1      10.805  -1.444  -6.812  0.00  0.00    +0.000 C 
ENDBRANCH  10  12
ENDBRANCH   4  10
ENDBRANCH   1   9
BRANCH   1  13
ATOM     13  C   UNL     1      10.005  -4.339  -2.862  0.00  0.00    +0.000 C 
BRANCH  13  14
ATOM     14  C   UNL     1      10.989  -3.259  -2.508  0.00  0.00    +0.000 A 
ATOM     15  C   UNL     1      12.295  -3.558  -2.095  0.00  0.00    +0.000 A 
ATOM     16  C   UNL     1      13.183  -2.516  -1.820  0.00  0.00    +0.000 A 
ATOM     17  N   UNL     1      12.782  -1.224  -1.960  0.00  0.00    +0.000 NA
ATOM     18  C   UNL     1      11.523  -0.910  -2.368  0.00  0.00    +0.000 A 
ATOM     19  C   UNL     1      10.605  -1.924  -2.654  0.00  0.00    +0.000 A 
ENDBRANCH  13  14
BRANCH  13  20
ATOM     20  C   UNL     1       9.988  -5.511  -1.926  0.00  0.00    +0.000 C 
ATOM     21  O   UNL     1      10.476  -6.620  -2.276  0.00  0.00    +0.000 OA
ATOM     22  N   UNL     1       9.370  -5.361  -0.643  0.00  0.00    +0.000 NA
BRANCH  22  23
ATOM     23  C   UNL     1       9.231  -6.426   0.346  0.00  0.00    +0.000 C 
ATOM     24  C   UNL     1      10.550  -6.665   1.057  0.00  0.00    +0.000 C 
ATOM     25  C   UNL     1       8.197  -6.010   1.371  0.00  0.00    +0.000 C 
ATOM     26  C   UNL     1       8.766  -7.709  -0.320  0.00  0.00    +0.000 C 
ENDBRANCH  22  23
ENDBRANCH  13  20
ENDBRANCH   1  13
BRANCH   2  27
ATOM     27  C   UNL     1       8.921  -5.675  -6.348  0.00  0.00    +0.000 C 
BRANCH  27  28
ATOM     28  N   UNL     1       8.294  -4.675  -7.195  0.00  0.00    +0.000 NA
ATOM     29  C   UNL     1       7.004  -4.871  -7.774  0.00  0.00    +0.000 C 
ATOM     30  O   UNL     1       6.381  -5.952  -7.591  0.00  0.00    +0.000 OA
BRANCH  29  31
ATOM     31  C   UNL     1       6.397  -3.810  -8.583  0.00  0.00    +0.000 A 
ATOM     32  C   UNL     1       5.332  -3.023  -8.200  0.00  0.00    +0.000 A 
ATOM     33  C   UNL     1       5.115  -2.174  -9.273  0.00  0.00    +0.000 A 
ATOM     34  C   UNL     1       6.058  -2.503 -10.232  0.00  0.00    +0.000 A 
ATOM     35  O   UNL     1       6.803  -3.484  -9.783  0.00  0.00    +0.000 OA
ENDBRANCH  29  31
ENDBRANCH  27  28
ENDBRANCH   2  27
TORSDOF 10
ENDMDL
